* NGSPICE file created from overvoltage_ana_rcx.ext - technology: sky130A

.subckt overvoltage_ana_rcx otrip_decoded[14] otrip_decoded[13] otrip_decoded[11]
+ otrip_decoded[10] otrip_decoded[1] otrip_decoded[0] ena itest ibg_200n otrip_decoded[7]
+ otrip_decoded[4] vbg_1v2 vin isrc_sel otrip_decoded[5] otrip_decoded[8] otrip_decoded[2]
+ ovout otrip_decoded[15] otrip_decoded[9] otrip_decoded[12] otrip_decoded[3] otrip_decoded[6]
+ avss dvdd dvss avdd
X0 rstring_mux_0.vtrip12.t4 rstring_mux_0.otrip_decoded_avdd[12] vin.t27 avss.t235 sky130_fd_pr__nfet_g5v0d10v5 ad=0.725 pd=5.29 as=0.725 ps=5.29 w=5 l=0.6
X1 comparator_0.vt comparator_0.vn avss.t193 avss.t192 sky130_fd_pr__nfet_g5v0d10v5 ad=0.145 pd=1.29 as=0.145 ps=1.29 w=1 l=8
X2 comparator_0.vt vin.t94 comparator_0.vpp comparator_0.vt sky130_fd_pr__nfet_g5v0d10v5 ad=0.0609 pd=0.71 as=0.0609 ps=0.71 w=0.42 l=8
X3 rstring_mux_0.sky130_fd_sc_hvl__inv_1_0[15].Y rstring_mux_0.otrip_decoded_avdd[15] avss.t151 avss.t150 sky130_fd_pr__nfet_g5v0d10v5 ad=0.21375 pd=2.07 as=0.21375 ps=2.07 w=0.75 l=0.5
X4 a_5346_n3990# a_4921_n3946# dvss.t223 dvss.t222 sky130_fd_pr__nfet_g5v0d10v5 ad=0.21 pd=1.78 as=0.3975 ps=3.53 w=1.5 l=0.5
X5 avdd.t196 a_429_n2876# a_1122_n3990# avdd.t195 sky130_fd_pr__pfet_g5v0d10v5 ad=0.1113 pd=1.37 as=0.1365 ps=1.49 w=0.42 l=1
X6 avss.t146 avss.t145 avss.t146 avss.t61 sky130_fd_pr__nfet_g5v0d10v5 ad=0.725 pd=5.29 as=0 ps=0 w=5 l=8
X7 dvss.t206 otrip_decoded[0].t0 a_n8119_n2964# dvss.t205 sky130_fd_pr__nfet_01v8 ad=0.1176 pd=1.12 as=0.2478 ps=2.27 w=0.84 l=0.15
X8 a_n18769_n11914# a_n18391_n15834# avss.t147 sky130_fd_pr__res_xhigh_po_1p41 l=17.6
X9 avdd.t35 comparator_0.vpp comparator_0.vpp avdd.t21 sky130_fd_pr__pfet_g5v0d10v5 ad=0.0609 pd=0.71 as=0.0609 ps=0.71 w=0.42 l=8
X10 rstring_mux_0.vtrip9.t2 rstring_mux_0.vtrip8.t2 avss.t246 sky130_fd_pr__res_xhigh_po_1p41 l=17.6
X11 vin.t42 avdd.t179 vin.t42 avdd.t180 sky130_fd_pr__pfet_g5v0d10v5 ad=0.725 pd=5.29 as=0 ps=0 w=5 l=0.6
X12 rstring_mux_0.otrip_decoded_b_avdd[1] rstring_mux_0.otrip_decoded_avdd[1] avss.t374 avss.t373 sky130_fd_pr__nfet_g5v0d10v5 ad=0.21375 pd=2.07 as=0.21375 ps=2.07 w=0.75 l=0.5
X13 dvss.t134 a_7033_n3946# a_7458_n3990# dvss.t133 sky130_fd_pr__nfet_g5v0d10v5 ad=0.21 pd=1.78 as=0.21 ps=1.78 w=1.5 l=0.5
X14 avdd.t34 comparator_0.vpp comparator_0.vnn avdd.t12 sky130_fd_pr__pfet_g5v0d10v5 ad=0.0609 pd=0.71 as=0.0609 ps=0.71 w=0.42 l=8
X15 rstring_mux_0.otrip_decoded_avdd[5] a_n2588_n1478# avdd.t215 avdd.t214 sky130_fd_pr__pfet_g5v0d10v5 ad=0.3975 pd=3.53 as=0.24375 ps=1.825 w=1.5 l=0.5
X16 sky130_fd_sc_hd__inv_4_0.Y schmitt_trigger_0.out.t4 dvdd.t73 dvdd.t72 sky130_fd_pr__pfet_01v8_hvt ad=0.135 pd=1.27 as=0.135 ps=1.27 w=1 l=0.15
X17 a_7458_n3990# a_7033_n3946# dvss.t132 dvss.t131 sky130_fd_pr__nfet_g5v0d10v5 ad=0.21 pd=1.78 as=0.3975 ps=3.53 w=1.5 l=0.5
X18 ibias_gen_0.vr.t1 ibias_gen_0.vn0.t19 ibias_gen_0.vp0.t1 avss.t44 sky130_fd_pr__nfet_g5v0d10v5 ad=0.725 pd=5.29 as=0.725 ps=5.29 w=5 l=4
X19 avdd.t291 a_2541_n2876# a_3234_n3990# avdd.t290 sky130_fd_pr__pfet_g5v0d10v5 ad=0.1113 pd=1.37 as=0.1365 ps=1.49 w=0.42 l=1
X20 a_n26830_n2937# a_n27208_n10337# avss.t309 sky130_fd_pr__res_xhigh_po_1p41 l=35
X21 comparator_0.vt vin.t95 comparator_0.vpp comparator_0.vt sky130_fd_pr__nfet_g5v0d10v5 ad=0.0609 pd=0.71 as=0.0609 ps=0.71 w=0.42 l=8
X22 dvss.t45 a_9145_n3946# a_9570_n3990# dvss.t44 sky130_fd_pr__nfet_g5v0d10v5 ad=0.21 pd=1.78 as=0.21 ps=1.78 w=1.5 l=0.5
X23 dvss.t178 sky130_fd_sc_hd__inv_4_0.Y ovout.t15 dvss.t177 sky130_fd_pr__nfet_01v8 ad=0.169 pd=1.82 as=0.08775 ps=0.92 w=0.65 l=0.15
X24 rstring_mux_0.otrip_decoded_avdd[8] a_1636_n3212# dvss.t124 dvss.t123 sky130_fd_pr__nfet_g5v0d10v5 ad=0.19875 pd=2.03 as=0.121875 ps=1.075 w=0.75 l=0.5
X25 dvss.t237 a_6765_n2876# a_7972_n3212# dvss.t236 sky130_fd_pr__nfet_g5v0d10v5 ad=0.121875 pd=1.075 as=0.19875 ps=2.03 w=0.75 l=0.5
X26 avdd.t205 ibias_gen_0.isrc_sel ibias_gen_0.isrc_sel_b avdd.t204 sky130_fd_pr__pfet_g5v0d10v5 ad=1.45 pd=10.58 as=0.725 ps=5.29 w=5 l=1
X27 a_n8951_9395# a_n8573_1995# avss.t361 sky130_fd_pr__res_xhigh_po_1p41 l=35
X28 dvdd.t59 sky130_fd_sc_hd__inv_4_0.Y ovout.t31 dvdd.t58 sky130_fd_pr__pfet_01v8_hvt ad=0.135 pd=1.27 as=0.135 ps=1.27 w=1 l=0.15
X29 itest.t1 ibias_gen_0.vp.t7 avdd.t45 avdd.t44 sky130_fd_pr__pfet_g5v0d10v5 ad=0.725 pd=5.29 as=0.725 ps=5.29 w=5 l=4
X30 vin.t41 avdd.t177 vin.t41 avdd.t178 sky130_fd_pr__pfet_g5v0d10v5 ad=0.725 pd=5.29 as=0 ps=0 w=5 l=0.6
X31 a_n24562_n2937# a_n24184_n10337# avss.t177 sky130_fd_pr__res_xhigh_po_1p41 l=35
X32 a_n21538_n2937# a_n21160_n10337# avss.t339 sky130_fd_pr__res_xhigh_po_1p41 l=35
X33 avdd.t259 a_4653_n2876# a_5346_n3990# avdd.t258 sky130_fd_pr__pfet_g5v0d10v5 ad=0.1113 pd=1.37 as=0.1365 ps=1.49 w=0.42 l=1
X34 vin.t40 avdd.t175 vin.t40 avdd.t176 sky130_fd_pr__pfet_g5v0d10v5 ad=0.725 pd=5.29 as=0 ps=0 w=5 l=0.6
X35 rstring_mux_0.otrip_decoded_b_avdd[2] rstring_mux_0.otrip_decoded_avdd[2] avss.t241 avss.t240 sky130_fd_pr__nfet_g5v0d10v5 ad=0.21375 pd=2.07 as=0.21375 ps=2.07 w=0.75 l=0.5
X36 avss.t327 ibias_gen_0.ena rstring_mux_0.ena_b avss.t326 sky130_fd_pr__nfet_g5v0d10v5 ad=0.21375 pd=2.07 as=0.21375 ps=2.07 w=0.75 l=0.5
X37 avdd.t174 avdd.t173 avdd.t174 avdd.t84 sky130_fd_pr__pfet_g5v0d10v5 ad=0.0609 pd=0.71 as=0 ps=0 w=0.42 l=8
X38 a_n26830_n2937# a_n26452_n10337# avss.t59 sky130_fd_pr__res_xhigh_po_1p41 l=35
X39 a_n23806_n2937# a_n23428_n10337# avss.t307 sky130_fd_pr__res_xhigh_po_1p41 l=35
X40 rstring_mux_0.vtrip10.t1 rstring_mux_0.otrip_decoded_avdd[10] vin.t3 avss.t14 sky130_fd_pr__nfet_g5v0d10v5 ad=0.725 pd=5.29 as=0.725 ps=5.29 w=5 l=0.6
X41 dcomp comparator_0.n1 avss.t41 avss.t40 sky130_fd_pr__nfet_g5v0d10v5 ad=0.145 pd=1.29 as=0.145 ps=1.29 w=1 l=0.6
X42 a_n7326_n3990# a_n7751_n3946# dvss.t486 dvss.t485 sky130_fd_pr__nfet_g5v0d10v5 ad=0.3975 pd=3.53 as=0.21 ps=1.78 w=1.5 l=0.5
X43 rstring_mux_0.otrip_decoded_avdd[10] a_3748_n3212# dvss.t271 dvss.t270 sky130_fd_pr__nfet_g5v0d10v5 ad=0.19875 pd=2.03 as=0.121875 ps=1.075 w=0.75 l=0.5
X44 comparator_0.vpp vin.t96 comparator_0.vt comparator_0.vt sky130_fd_pr__nfet_g5v0d10v5 ad=0.0609 pd=0.71 as=0.0609 ps=0.71 w=0.42 l=8
X45 schmitt_trigger_0.out.t0 schmitt_trigger_0.m.t14 dvdd.t103 dvdd.t102 sky130_fd_pr__pfet_01v8 ad=0.29 pd=2.58 as=0.145 ps=1.29 w=1 l=0.5
X46 avdd.t353 a_n3795_n1142# a_n2588_n1478# avdd.t214 sky130_fd_pr__pfet_g5v0d10v5 ad=0.24375 pd=1.825 as=0.3975 ps=3.53 w=1.5 l=0.5
X47 a_9203_n11914# a_9581_n15834# avss.t376 sky130_fd_pr__res_xhigh_po_1p41 l=17.6
X48 ibias_gen_0.vp1.t16 ibias_gen_0.vp1.t15 avdd.t424 avdd.t423 sky130_fd_pr__pfet_g5v0d10v5 ad=0.725 pd=5.29 as=0.725 ps=5.29 w=5 l=4
X49 a_n15529_n2223# ibias_gen_0.isrc_sel_b ibias_gen_0.vn1.t9 avdd.t428 sky130_fd_pr__pfet_g5v0d10v5 ad=0.725 pd=5.29 as=0.725 ps=5.29 w=5 l=0.6
X50 a_n1683_n1142# a_n1783_n1230# dvss.t541 dvss.t540 sky130_fd_pr__nfet_g5v0d10v5 ad=0.21 pd=1.78 as=0.3975 ps=3.53 w=1.5 l=0.5
X51 dvss.t319 otrip_decoded[11].t0 a_2441_n1230# dvss.t318 sky130_fd_pr__nfet_01v8 ad=0.1176 pd=1.12 as=0.2478 ps=2.27 w=0.84 l=0.15
X52 avdd.t11 a_n3102_n2256# a_n3795_n1142# avdd.t10 sky130_fd_pr__pfet_g5v0d10v5 ad=0.2142 pd=1.99 as=0.2142 ps=1.99 w=0.42 l=1
X53 a_2809_n3946# a_2441_n2964# dvdd.t91 dvdd.t90 sky130_fd_pr__pfet_01v8_hvt ad=0.2478 pd=2.27 as=0.1176 ps=1.12 w=0.84 l=0.15
X54 avdd.t252 a_6765_n2876# a_7458_n3990# avdd.t251 sky130_fd_pr__pfet_g5v0d10v5 ad=0.1113 pd=1.37 as=0.1365 ps=1.49 w=0.42 l=1
X55 dcomp comparator_0.n1 avdd.t67 avdd.t66 sky130_fd_pr__pfet_g5v0d10v5 ad=0.145 pd=1.29 as=0.145 ps=1.29 w=1 l=0.6
X56 comparator_0.vt vbg_1v2.t0 comparator_0.vnn comparator_0.vt sky130_fd_pr__nfet_g5v0d10v5 ad=0.0609 pd=0.71 as=0.0609 ps=0.71 w=0.42 l=8
X57 a_n6673_n11914# a_n6295_n15834# avss.t331 sky130_fd_pr__res_xhigh_po_1p41 l=17.6
X58 rstring_mux_0.otrip_decoded_b_avdd[6] rstring_mux_0.otrip_decoded_avdd[6] avdd.t217 avdd.t216 sky130_fd_pr__pfet_g5v0d10v5 ad=0.4275 pd=3.57 as=0.4275 ps=3.57 w=1.5 l=0.5
X59 rstring_mux_0.vtrip11.t3 rstring_mux_0.otrip_decoded_b_avdd[11] vin.t51 avdd.t312 sky130_fd_pr__pfet_g5v0d10v5 ad=0.725 pd=5.29 as=0.725 ps=5.29 w=5 l=0.6
X60 ibias_gen_0.vn0.t7 vbg_1v2.t1 ibias_gen_0.vstart.t10 avss.t166 sky130_fd_pr__nfet_g5v0d10v5 ad=0.725 pd=5.29 as=0.725 ps=5.29 w=5 l=0.6
X61 ibias_gen_0.vr.t4 a_n20404_n10337# avss.t218 sky130_fd_pr__res_xhigh_po_1p41 l=35
X62 avdd.t327 a_n5907_n1142# a_n4700_n1478# avdd.t181 sky130_fd_pr__pfet_g5v0d10v5 ad=0.24375 pd=1.825 as=0.3975 ps=3.53 w=1.5 l=0.5
X63 comparator_0.vpp comparator_0.vnn avdd.t237 avdd.t17 sky130_fd_pr__pfet_g5v0d10v5 ad=0.0609 pd=0.71 as=0.0609 ps=0.71 w=0.42 l=8
X64 a_n13487_9395# a_n13109_1995# avss.t251 sky130_fd_pr__res_xhigh_po_1p41 l=35
X65 dvdd.t71 schmitt_trigger_0.out.t5 sky130_fd_sc_hd__inv_4_0.Y dvdd.t70 sky130_fd_pr__pfet_01v8_hvt ad=0.26 pd=2.52 as=0.135 ps=1.27 w=1 l=0.15
X66 a_n3795_n1142# a_n3895_n1230# dvss.t146 dvss.t145 sky130_fd_pr__nfet_g5v0d10v5 ad=0.21 pd=1.78 as=0.3975 ps=3.53 w=1.5 l=0.5
X67 a_2541_n1142# a_2441_n1230# dvss.t269 dvss.t78 sky130_fd_pr__nfet_g5v0d10v5 ad=0.3975 pd=3.53 as=0.21 ps=1.78 w=1.5 l=0.5
X68 a_7033_n3946# a_6665_n2964# dvdd.t119 dvdd.t118 sky130_fd_pr__pfet_01v8_hvt ad=0.2478 pd=2.27 as=0.1176 ps=1.12 w=0.84 l=0.15
X69 avdd.t236 comparator_0.vnn comparator_0.vpp avdd.t21 sky130_fd_pr__pfet_g5v0d10v5 ad=0.0609 pd=0.71 as=0.0609 ps=0.71 w=0.42 l=8
X70 avdd.t172 avdd.t170 avdd.t171 avdd.t80 sky130_fd_pr__pfet_g5v0d10v5 ad=0.1218 pd=1.42 as=0 ps=0 w=0.42 l=8
X71 avdd.t169 avdd.t168 avdd.t169 avdd.t84 sky130_fd_pr__pfet_g5v0d10v5 ad=0.0609 pd=0.71 as=0 ps=0 w=0.42 l=8
X72 ovout.t30 sky130_fd_sc_hd__inv_4_0.Y dvdd.t57 dvdd.t56 sky130_fd_pr__pfet_01v8_hvt ad=0.135 pd=1.27 as=0.135 ps=1.27 w=1 l=0.15
X73 rstring_mux_0.vtrip5.t4 rstring_mux_0.vtrip4.t3 avss.t340 sky130_fd_pr__res_xhigh_po_1p41 l=17.6
X74 a_n14243_9395# a_n14621_1995# avss.t207 sky130_fd_pr__res_xhigh_po_1p41 l=35
X75 dvdd.t101 otrip_decoded[6].t0 a_n1783_n2964# dvdd.t100 sky130_fd_pr__pfet_01v8_hvt ad=0.1176 pd=1.12 as=0.2478 ps=2.27 w=0.84 l=0.15
X76 dvss.t435 a_8877_n1142# a_10084_n1478# dvss.t74 sky130_fd_pr__nfet_g5v0d10v5 ad=0.121875 pd=1.075 as=0.19875 ps=2.03 w=0.75 l=0.5
X77 rstring_mux_0.otrip_decoded_avdd[13] a_5860_n1478# avdd.t188 avdd.t187 sky130_fd_pr__pfet_g5v0d10v5 ad=0.3975 pd=3.53 as=0.24375 ps=1.825 w=1.5 l=0.5
X78 a_n25573_n11914# a_n25195_n15834# avss.t47 sky130_fd_pr__res_xhigh_po_1p41 l=17.6
X79 rstring_mux_0.otrip_decoded_b_avdd[1] rstring_mux_0.otrip_decoded_avdd[1] avdd.t438 avdd.t437 sky130_fd_pr__pfet_g5v0d10v5 ad=0.4275 pd=3.57 as=0.4275 ps=3.57 w=1.5 l=0.5
X80 dvss.t307 a_2541_n2876# a_3748_n3212# dvss.t306 sky130_fd_pr__nfet_g5v0d10v5 ad=0.121875 pd=1.075 as=0.19875 ps=2.03 w=0.75 l=0.5
X81 comparator_0.vm comparator_0.vm avss.t250 avss.t188 sky130_fd_pr__nfet_g5v0d10v5 ad=0.145 pd=1.29 as=0.145 ps=1.29 w=1 l=8
X82 comparator_0.vnn comparator_0.vpp avdd.t33 avdd.t14 sky130_fd_pr__pfet_g5v0d10v5 ad=0.0609 pd=0.71 as=0.0609 ps=0.71 w=0.42 l=8
X83 avdd.t235 comparator_0.vnn comparator_0.vnn avdd.t12 sky130_fd_pr__pfet_g5v0d10v5 ad=0.0609 pd=0.71 as=0.0609 ps=0.71 w=0.42 l=8
X84 comparator_0.vt vbg_1v2.t2 comparator_0.vnn comparator_0.vt sky130_fd_pr__nfet_g5v0d10v5 ad=0.0609 pd=0.71 as=0.0609 ps=0.71 w=0.42 l=8
X85 avdd.t383 a_n8019_n1142# a_n6812_n1478# avdd.t206 sky130_fd_pr__pfet_g5v0d10v5 ad=0.24375 pd=1.825 as=0.3975 ps=3.53 w=1.5 l=0.5
X86 a_n9697_n11914# a_n10075_n15834# avss.t357 sky130_fd_pr__res_xhigh_po_1p41 l=17.6
X87 vin.t7 rstring_mux_0.otrip_decoded_b_avdd[13] rstring_mux_0.vtrip13.t1 avdd.t43 sky130_fd_pr__pfet_g5v0d10v5 ad=0.725 pd=5.29 as=0.725 ps=5.29 w=5 l=0.6
X88 rstring_mux_0.otrip_decoded_avdd[5] a_n2588_n1478# dvss.t180 dvss.t179 sky130_fd_pr__nfet_g5v0d10v5 ad=0.19875 pd=2.03 as=0.121875 ps=1.075 w=0.75 l=0.5
X89 schmitt_trigger_0.m.t0 schmitt_trigger_0.in.t1 dvdd.t15 dvdd.t14 sky130_fd_pr__pfet_01v8 ad=0.145 pd=1.29 as=0.145 ps=1.29 w=1 l=0.5
X90 a_4653_n1142# a_4553_n1230# dvss.t521 dvss.t78 sky130_fd_pr__nfet_g5v0d10v5 ad=0.3975 pd=3.53 as=0.21 ps=1.78 w=1.5 l=0.5
X91 a_9145_n3946# a_8777_n2964# dvdd.t89 dvdd.t88 sky130_fd_pr__pfet_01v8_hvt ad=0.2478 pd=2.27 as=0.1176 ps=1.12 w=0.84 l=0.15
X92 a_n13477_n11914# a_n13099_n15834# avss.t198 sky130_fd_pr__res_xhigh_po_1p41 l=17.6
X93 dvdd.t139 otrip_decoded[4].t0 a_n3895_n2964# dvdd.t138 sky130_fd_pr__pfet_01v8_hvt ad=0.1176 pd=1.12 as=0.2478 ps=2.27 w=0.84 l=0.15
X94 a_n11975_9395# a_n11597_1995# avss.t345 sky130_fd_pr__res_xhigh_po_1p41 l=35
X95 dvss.t514 otrip_decoded[9].t0 a_329_n1230# dvss.t513 sky130_fd_pr__nfet_01v8 ad=0.1176 pd=1.12 as=0.2478 ps=2.27 w=0.84 l=0.15
X96 a_697_n3946# a_329_n2964# dvdd.t75 dvdd.t74 sky130_fd_pr__pfet_01v8_hvt ad=0.2478 pd=2.27 as=0.1176 ps=1.12 w=0.84 l=0.15
X97 comparator_0.n1 comparator_0.n0 avdd.t247 avdd.t246 sky130_fd_pr__pfet_g5v0d10v5 ad=0.145 pd=1.29 as=0.29 ps=2.58 w=1 l=0.6
X98 a_n20281_n11914# a_n20659_n15834# avss.t380 sky130_fd_pr__res_xhigh_po_1p41 l=17.6
X99 avdd.t65 comparator_0.n1 dcomp avdd.t64 sky130_fd_pr__pfet_g5v0d10v5 ad=0.145 pd=1.29 as=0.145 ps=1.29 w=1 l=0.6
X100 avdd.t275 a_429_n1142# a_1636_n1478# avdd.t274 sky130_fd_pr__pfet_g5v0d10v5 ad=0.24375 pd=1.825 as=0.3975 ps=3.53 w=1.5 l=0.5
X101 avdd.t416 rstring_mux_0.ena_b rstring_mux_0.vtop.t16 avdd.t415 sky130_fd_pr__pfet_g5v0d10v5 ad=0.725 pd=5.29 as=0.725 ps=5.29 w=5 l=0.6
X102 dvss.t249 a_4653_n2876# a_5860_n3212# dvss.t248 sky130_fd_pr__nfet_g5v0d10v5 ad=0.121875 pd=1.075 as=0.19875 ps=2.03 w=0.75 l=0.5
X103 a_n5161_n11914# a_n4783_n15834# avss.t298 sky130_fd_pr__res_xhigh_po_1p41 l=17.6
X104 comparator_0.n1 comparator_0.n0 avss.t212 avss.t211 sky130_fd_pr__nfet_g5v0d10v5 ad=0.145 pd=1.29 as=0.29 ps=2.58 w=1 l=0.6
X105 comparator_0.vpp vin.t97 comparator_0.vt comparator_0.vt sky130_fd_pr__nfet_g5v0d10v5 ad=0.0609 pd=0.71 as=0.0609 ps=0.71 w=0.42 l=8
X106 ovout.t29 sky130_fd_sc_hd__inv_4_0.Y dvdd.t55 dvdd.t54 sky130_fd_pr__pfet_01v8_hvt ad=0.135 pd=1.27 as=0.26 ps=2.52 w=1 l=0.15
X107 dvss.t176 sky130_fd_sc_hd__inv_4_0.Y ovout.t14 dvss.t175 sky130_fd_pr__nfet_01v8 ad=0.08775 pd=0.92 as=0.08775 ps=0.92 w=0.65 l=0.15
X108 ibias_gen_0.vp0.t5 ibias_gen_0.vp0.t4 avdd.t365 avdd.t364 sky130_fd_pr__pfet_g5v0d10v5 ad=0.725 pd=5.29 as=0.725 ps=5.29 w=5 l=4
X109 rstring_mux_0.otrip_decoded_avdd[3] a_n4700_n1478# dvss.t63 dvss.t62 sky130_fd_pr__nfet_g5v0d10v5 ad=0.19875 pd=2.03 as=0.121875 ps=1.075 w=0.75 l=0.5
X110 schmitt_trigger_0.m.t1 schmitt_trigger_0.in.t2 dvss.t112 dvss.t111 sky130_fd_pr__nfet_01v8 ad=0.145 pd=1.29 as=0.29 ps=2.58 w=1 l=0.5
X111 a_6765_n1142# a_6665_n1230# dvss.t92 dvss.t78 sky130_fd_pr__nfet_g5v0d10v5 ad=0.3975 pd=3.53 as=0.21 ps=1.78 w=1.5 l=0.5
X112 a_n5161_n11914# a_n5539_n15834# avss.t19 sky130_fd_pr__res_xhigh_po_1p41 l=17.6
X113 dvss.t430 dvss.t428 schmitt_trigger_0.m.t12 dvss.t429 sky130_fd_pr__nfet_01v8 ad=0.145 pd=1.29 as=0.145 ps=1.29 w=1 l=0.5
X114 rstring_mux_0.vtop.t15 rstring_mux_0.ena_b avdd.t414 avdd.t413 sky130_fd_pr__pfet_g5v0d10v5 ad=0.725 pd=5.29 as=0.725 ps=5.29 w=5 l=0.6
X115 ibias_gen_0.ena_b ibias_gen_0.ena avss.t325 avss.t324 sky130_fd_pr__nfet_g5v0d10v5 ad=0.725 pd=5.29 as=1.45 ps=10.58 w=5 l=1
X116 rstring_mux_0.otrip_decoded_avdd[2] a_n4700_n3212# avdd.t418 avdd.t8 sky130_fd_pr__pfet_g5v0d10v5 ad=0.3975 pd=3.53 as=0.24375 ps=1.825 w=1.5 l=0.5
X117 vin.t86 rstring_mux_0.otrip_decoded_b_avdd[6] rstring_mux_0.vtrip6.t5 avdd.t436 sky130_fd_pr__pfet_g5v0d10v5 ad=0.725 pd=5.29 as=0.725 ps=5.29 w=5 l=0.6
X118 dvdd.t126 otrip_decoded[2].t0 a_n6007_n2964# dvdd.t125 sky130_fd_pr__pfet_01v8_hvt ad=0.1176 pd=1.12 as=0.2478 ps=2.27 w=0.84 l=0.15
X119 avss.t144 avss.t142 avss.t143 avss.t72 sky130_fd_pr__nfet_g5v0d10v5 ad=1.45 pd=10.58 as=0 ps=0 w=5 l=8
X120 dcomp comparator_0.n1 avdd.t63 avdd.t62 sky130_fd_pr__pfet_g5v0d10v5 ad=0.145 pd=1.29 as=0.145 ps=1.29 w=1 l=0.6
X121 comparator_0.vnn comparator_0.vpp avdd.t32 avdd.t14 sky130_fd_pr__pfet_g5v0d10v5 ad=0.0609 pd=0.71 as=0.0609 ps=0.71 w=0.42 l=8
X122 avdd.t31 comparator_0.vpp comparator_0.n0 avdd.t12 sky130_fd_pr__pfet_g5v0d10v5 ad=0.145 pd=1.29 as=0.145 ps=1.29 w=1 l=8
X123 ibias_gen_0.vp.t4 ibias_gen_0.ena avdd.t347 avdd.t346 sky130_fd_pr__pfet_g5v0d10v5 ad=1.45 pd=10.58 as=0.725 ps=5.29 w=5 l=2
X124 avdd.t283 a_1122_n2256# a_429_n1142# avdd.t282 sky130_fd_pr__pfet_g5v0d10v5 ad=0.2142 pd=1.99 as=0.2142 ps=1.99 w=0.42 l=1
X125 avdd.t412 rstring_mux_0.ena_b rstring_mux_0.vtop.t14 avdd.t411 sky130_fd_pr__pfet_g5v0d10v5 ad=0.725 pd=5.29 as=0.725 ps=5.29 w=5 l=0.6
X126 avdd.t47 ibias_gen_0.vp.t8 ibias_gen_0.ibias avdd.t46 sky130_fd_pr__pfet_g5v0d10v5 ad=0.725 pd=5.29 as=0.725 ps=5.29 w=5 l=4
X127 rstring_mux_0.otrip_decoded_b_avdd[8] rstring_mux_0.otrip_decoded_avdd[8] avss.t158 avss.t157 sky130_fd_pr__nfet_g5v0d10v5 ad=0.21375 pd=2.07 as=0.21375 ps=2.07 w=0.75 l=0.5
X128 comparator_0.vpp ibias_gen_0.ena avdd.t345 avdd.t344 sky130_fd_pr__pfet_g5v0d10v5 ad=0.29 pd=2.58 as=0.29 ps=2.58 w=1 l=1
X129 ibias_gen_0.vn0.t4 ibias_gen_0.vn0.t3 ibias_gen_0.ve.t1 avss.t43 sky130_fd_pr__nfet_g5v0d10v5 ad=0.725 pd=5.29 as=0.725 ps=5.29 w=5 l=4
X130 ibias_gen_0.vp.t5 ibias_gen_0.isrc_sel_b ibias_gen_0.vp0.t10 avss.t360 sky130_fd_pr__nfet_g5v0d10v5 ad=0.725 pd=5.29 as=0.725 ps=5.29 w=5 l=0.6
X131 vin.t39 avdd.t166 vin.t39 avdd.t167 sky130_fd_pr__pfet_g5v0d10v5 ad=0.725 pd=5.29 as=0 ps=0 w=5 l=0.6
X132 dvss.t174 sky130_fd_sc_hd__inv_4_0.Y ovout.t13 dvss.t173 sky130_fd_pr__nfet_01v8 ad=0.08775 pd=0.92 as=0.08775 ps=0.92 w=0.65 l=0.15
X133 rstring_mux_0.vtop.t13 rstring_mux_0.ena_b avdd.t410 avdd.t409 sky130_fd_pr__pfet_g5v0d10v5 ad=0.725 pd=5.29 as=0.725 ps=5.29 w=5 l=0.6
X134 ibias_gen_0.vp1.t4 ibias_gen_0.vn1.t10 avss.t287 avss.t285 sky130_fd_pr__nfet_g5v0d10v5 ad=0.725 pd=5.29 as=0.725 ps=5.29 w=5 l=8
X135 a_n24061_n11914# a_n23683_n15834# avss.t301 sky130_fd_pr__res_xhigh_po_1p41 l=17.6
X136 comparator_0.vn ibias_gen_0.ena ibias_gen_0.ibias avss.t323 sky130_fd_pr__nfet_g5v0d10v5 ad=0.29 pd=2.58 as=0.29 ps=2.58 w=1 l=1
X137 a_n7751_n2212# a_n8119_n1230# dvss.t104 dvss.t103 sky130_fd_pr__nfet_01v8 ad=0.2478 pd=2.27 as=0.1176 ps=1.12 w=0.84 l=0.15
X138 rstring_mux_0.otrip_decoded_avdd[0] a_n6812_n3212# avdd.t269 avdd.t268 sky130_fd_pr__pfet_g5v0d10v5 ad=0.3975 pd=3.53 as=0.24375 ps=1.825 w=1.5 l=0.5
X139 rstring_mux_0.otrip_decoded_b_avdd[12] rstring_mux_0.otrip_decoded_avdd[12] avss.t234 avss.t233 sky130_fd_pr__nfet_g5v0d10v5 ad=0.21375 pd=2.07 as=0.21375 ps=2.07 w=0.75 l=0.5
X140 comparator_0.vnn ibias_gen_0.ena avdd.t343 avdd.t342 sky130_fd_pr__pfet_g5v0d10v5 ad=0.29 pd=2.58 as=0.29 ps=2.58 w=1 l=1
X141 a_n24061_n11914# a_n24439_n15834# avss.t219 sky130_fd_pr__res_xhigh_po_1p41 l=17.6
X142 dvdd.t5 otrip_decoded[0].t1 a_n8119_n2964# dvdd.t4 sky130_fd_pr__pfet_01v8_hvt ad=0.1176 pd=1.12 as=0.2478 ps=2.27 w=0.84 l=0.15
X143 a_9959_n11914# a_10337_n15834# avss.t154 sky130_fd_pr__res_xhigh_po_1p41 l=17.6
X144 vin.t48 rstring_mux_0.otrip_decoded_b_avdd[1] rstring_mux_0.vtrip1.t1 avdd.t302 sky130_fd_pr__pfet_g5v0d10v5 ad=0.725 pd=5.29 as=0.725 ps=5.29 w=5 l=0.6
X145 rstring_mux_0.otrip_decoded_avdd[9] a_1636_n1478# avdd.t350 avdd.t274 sky130_fd_pr__pfet_g5v0d10v5 ad=0.3975 pd=3.53 as=0.24375 ps=1.825 w=1.5 l=0.5
X146 avdd.t380 a_6765_n1142# a_7972_n1478# avdd.t379 sky130_fd_pr__pfet_g5v0d10v5 ad=0.24375 pd=1.825 as=0.3975 ps=3.53 w=1.5 l=0.5
X147 avdd.t254 a_3234_n2256# a_2541_n1142# avdd.t253 sky130_fd_pr__pfet_g5v0d10v5 ad=0.2142 pd=1.99 as=0.2142 ps=1.99 w=0.42 l=1
X148 a_n8195_9395# schmitt_trigger_0.in.t0 avss.t274 sky130_fd_pr__res_xhigh_po_1p41 l=35
X149 a_n11965_n11914# a_n11587_n15834# avss.t185 sky130_fd_pr__res_xhigh_po_1p41 l=17.6
X150 a_n8941_n11914# a_n8563_n15834# avss.t48 sky130_fd_pr__res_xhigh_po_1p41 l=17.6
X151 a_3911_n11914# a_4289_n15834# avss.t4 sky130_fd_pr__res_xhigh_po_1p41 l=17.6
X152 vin.t70 rstring_mux_0.otrip_decoded_avdd[0] rstring_mux_0.vtrip0.t5 avss.t350 sky130_fd_pr__nfet_g5v0d10v5 ad=0.725 pd=5.29 as=0.725 ps=5.29 w=5 l=0.6
X153 dvss.t114 schmitt_trigger_0.in.t3 schmitt_trigger_0.m.t2 dvss.t113 sky130_fd_pr__nfet_01v8 ad=0.145 pd=1.29 as=0.145 ps=1.29 w=1 l=0.5
X154 a_n8951_9395# a_n9329_1995# avss.t153 sky130_fd_pr__res_xhigh_po_1p41 l=35
X155 avss.t141 avss.t139 avss.t140 avss.t72 sky130_fd_pr__nfet_g5v0d10v5 ad=1.45 pd=10.58 as=0 ps=0 w=5 l=8
X156 vin.t75 avdd.t164 vin.t75 avdd.t165 sky130_fd_pr__pfet_g5v0d10v5 ad=0.725 pd=5.29 as=0 ps=0 w=5 l=0.6
X157 comparator_0.vpp comparator_0.vpp avdd.t30 avdd.t17 sky130_fd_pr__pfet_g5v0d10v5 ad=0.0609 pd=0.71 as=0.0609 ps=0.71 w=0.42 l=8
X158 dvdd.t87 otrip_decoded[11].t1 a_2441_n1230# dvdd.t86 sky130_fd_pr__pfet_01v8_hvt ad=0.1176 pd=1.12 as=0.2478 ps=2.27 w=0.84 l=0.15
X159 vin.t74 avdd.t162 vin.t74 avdd.t163 sky130_fd_pr__pfet_g5v0d10v5 ad=0.725 pd=5.29 as=0 ps=0 w=5 l=0.6
X160 rstring_mux_0.otrip_decoded_b_avdd[4] rstring_mux_0.otrip_decoded_avdd[4] avss.t52 avss.t51 sky130_fd_pr__nfet_g5v0d10v5 ad=0.21375 pd=2.07 as=0.21375 ps=2.07 w=0.75 l=0.5
X161 avdd.t49 ibias_gen_0.vp.t9 itest.t0 avdd.t48 sky130_fd_pr__pfet_g5v0d10v5 ad=0.725 pd=5.29 as=0.725 ps=5.29 w=5 l=4
X162 vin.t9 rstring_mux_0.otrip_decoded_avdd[4] rstring_mux_0.vtrip4.t2 avss.t50 sky130_fd_pr__nfet_g5v0d10v5 ad=0.725 pd=5.29 as=0.725 ps=5.29 w=5 l=0.6
X163 ibias_gen_0.vstart.t9 vbg_1v2.t3 ibias_gen_0.vn0.t8 avss.t167 sky130_fd_pr__nfet_g5v0d10v5 ad=0.725 pd=5.29 as=0.725 ps=5.29 w=5 l=0.6
X164 comparator_0.ena_b ibias_gen_0.ena avdd.t341 avdd.t340 sky130_fd_pr__pfet_g5v0d10v5 ad=0.29 pd=2.58 as=0.29 ps=2.58 w=1 l=1
X165 ibias_gen_0.isrc_sel_b avss.t137 ibias_gen_0.ena_b avss.t138 sky130_fd_pr__nfet_g5v0d10v5 ad=0.725 pd=5.29 as=0.725 ps=5.29 w=5 l=1
X166 a_n1683_n1142# a_n1783_n1230# dvss.t539 dvss.t538 sky130_fd_pr__nfet_g5v0d10v5 ad=0.21 pd=1.78 as=0.21 ps=1.78 w=1.5 l=0.5
X167 a_n20782_n2937# a_n21160_n10337# avss.t206 sky130_fd_pr__res_xhigh_po_1p41 l=35
X168 avdd.t234 comparator_0.vnn comparator_0.vpp avdd.t21 sky130_fd_pr__pfet_g5v0d10v5 ad=0.0609 pd=0.71 as=0.0609 ps=0.71 w=0.42 l=8
X169 rstring_mux_0.otrip_decoded_avdd[11] a_3748_n1478# avdd.t324 avdd.t318 sky130_fd_pr__pfet_g5v0d10v5 ad=0.3975 pd=3.53 as=0.24375 ps=1.825 w=1.5 l=0.5
X170 avdd.t161 avdd.t160 avdd.t161 avdd.t84 sky130_fd_pr__pfet_g5v0d10v5 ad=0.0609 pd=0.71 as=0 ps=0 w=0.42 l=8
X171 dvdd.t17 schmitt_trigger_0.in.t4 schmitt_trigger_0.m.t3 dvdd.t16 sky130_fd_pr__pfet_01v8 ad=0.145 pd=1.29 as=0.145 ps=1.29 w=1 l=0.5
X172 avdd.t249 a_5346_n2256# a_4653_n1142# avdd.t248 sky130_fd_pr__pfet_g5v0d10v5 ad=0.2142 pd=1.99 as=0.2142 ps=1.99 w=0.42 l=1
X173 comparator_0.vn comparator_0.ena_b ibias_gen_0.ibias avdd.t213 sky130_fd_pr__pfet_g5v0d10v5 ad=0.29 pd=2.58 as=0.29 ps=2.58 w=1 l=1
X174 ovout.t28 sky130_fd_sc_hd__inv_4_0.Y dvdd.t53 dvdd.t52 sky130_fd_pr__pfet_01v8_hvt ad=0.135 pd=1.27 as=0.135 ps=1.27 w=1 l=0.15
X175 a_n27841_n11914# a_n27463_n15834# avss.t341 sky130_fd_pr__res_xhigh_po_1p41 l=17.6
X176 rstring_mux_0.vtop.t12 rstring_mux_0.ena_b avdd.t408 avdd.t407 sky130_fd_pr__pfet_g5v0d10v5 ad=0.725 pd=5.29 as=0.725 ps=5.29 w=5 l=0.6
X177 a_n3795_n1142# a_n3895_n1230# dvss.t144 dvss.t143 sky130_fd_pr__nfet_g5v0d10v5 ad=0.21 pd=1.78 as=0.21 ps=1.78 w=1.5 l=0.5
X178 a_n14989_n11914# a_n15367_n15834# avss.t346 sky130_fd_pr__res_xhigh_po_1p41 l=17.6
X179 rstring_mux_0.vtrip13.t0 rstring_mux_0.otrip_decoded_b_avdd[13] vin.t6 avdd.t42 sky130_fd_pr__pfet_g5v0d10v5 ad=0.725 pd=5.29 as=0.725 ps=5.29 w=5 l=0.6
X180 comparator_0.vnn avss.t385 comparator_0.vt comparator_0.vt sky130_fd_pr__nfet_g5v0d10v5 ad=0.0609 pd=0.71 as=0.1218 ps=1.42 w=0.42 l=8
X181 avdd.t422 ibias_gen_0.vp1.t13 ibias_gen_0.vp1.t14 avdd.t421 sky130_fd_pr__pfet_g5v0d10v5 ad=0.725 pd=5.29 as=0.725 ps=5.29 w=5 l=4
X182 dvss.t172 sky130_fd_sc_hd__inv_4_0.Y ovout.t12 dvss.t171 sky130_fd_pr__nfet_01v8 ad=0.08775 pd=0.92 as=0.08775 ps=0.92 w=0.65 l=0.15
X183 vin.t82 rstring_mux_0.otrip_decoded_avdd[11] rstring_mux_0.vtrip11.t5 avss.t369 sky130_fd_pr__nfet_g5v0d10v5 ad=0.725 pd=5.29 as=0.725 ps=5.29 w=5 l=0.6
X184 a_7691_n11914# a_8069_n15834# avss.t271 sky130_fd_pr__res_xhigh_po_1p41 l=17.6
X185 rstring_mux_0.vtrip3.t1 rstring_mux_0.otrip_decoded_avdd[3] vin.t1 avss.t10 sky130_fd_pr__nfet_g5v0d10v5 ad=0.725 pd=5.29 as=0.725 ps=5.29 w=5 l=0.6
X186 vin.t92 rstring_mux_0.sky130_fd_sc_hvl__inv_1_0[15].Y rstring_mux_0.vtrip15.t5 avdd.t442 sky130_fd_pr__pfet_g5v0d10v5 ad=1.45 pd=10.58 as=0.725 ps=5.29 w=5 l=0.6
X187 a_n15745_n11914# a_n15367_n15834# avss.t213 sky130_fd_pr__res_xhigh_po_1p41 l=17.6
X188 dvss.t498 a_n6007_n1230# a_n5907_n1142# dvss.t497 sky130_fd_pr__nfet_g5v0d10v5 ad=0.21 pd=1.78 as=0.21 ps=1.78 w=1.5 l=0.5
X189 dvss.t520 a_4553_n1230# a_4653_n1142# dvss.t78 sky130_fd_pr__nfet_g5v0d10v5 ad=0.21 pd=1.78 as=0.21 ps=1.78 w=1.5 l=0.5
X190 comparator_0.vpp vin.t98 comparator_0.vt comparator_0.vt sky130_fd_pr__nfet_g5v0d10v5 ad=0.0609 pd=0.71 as=0.0609 ps=0.71 w=0.42 l=8
X191 avss.t288 ibias_gen_0.vn1.t11 ibias_gen_0.vp1.t5 avss.t283 sky130_fd_pr__nfet_g5v0d10v5 ad=0.725 pd=5.29 as=0.725 ps=5.29 w=5 l=8
X192 ovout.t27 sky130_fd_sc_hd__inv_4_0.Y dvdd.t51 dvdd.t50 sky130_fd_pr__pfet_01v8_hvt ad=0.135 pd=1.27 as=0.135 ps=1.27 w=1 l=0.15
X193 avdd.t304 a_7458_n2256# a_6765_n1142# avdd.t303 sky130_fd_pr__pfet_g5v0d10v5 ad=0.2142 pd=1.99 as=0.2142 ps=1.99 w=0.42 l=1
X194 rstring_mux_0.vtrip9.t1 rstring_mux_0.otrip_decoded_avdd[9] vin.t23 avss.t224 sky130_fd_pr__nfet_g5v0d10v5 ad=0.725 pd=5.29 as=0.725 ps=5.29 w=5 l=0.6
X195 rstring_mux_0.vtrip0.t4 rstring_mux_0.otrip_decoded_avdd[0] vin.t69 avss.t349 sky130_fd_pr__nfet_g5v0d10v5 ad=0.725 pd=5.29 as=1.45 ps=10.58 w=5 l=0.6
X196 ibias_gen_0.vp1.t6 ibias_gen_0.vn1.t12 avss.t289 avss.t285 sky130_fd_pr__nfet_g5v0d10v5 ad=0.725 pd=5.29 as=0.725 ps=5.29 w=5 l=8
X197 rstring_mux_0.otrip_decoded_avdd[14] a_7972_n3212# avdd.t73 avdd.t72 sky130_fd_pr__pfet_g5v0d10v5 ad=0.3975 pd=3.53 as=0.24375 ps=1.825 w=1.5 l=0.5
X198 ibias_gen_0.vp.t2 ibias_gen_0.isrc_sel ibias_gen_0.vp0.t8 avdd.t203 sky130_fd_pr__pfet_g5v0d10v5 ad=0.725 pd=5.29 as=0.725 ps=5.29 w=5 l=0.6
X199 comparator_0.vt vbg_1v2.t4 comparator_0.vnn comparator_0.vt sky130_fd_pr__nfet_g5v0d10v5 ad=0.0609 pd=0.71 as=0.0609 ps=0.71 w=0.42 l=8
X200 a_n5907_n1142# a_n6007_n1230# dvss.t496 dvss.t495 sky130_fd_pr__nfet_g5v0d10v5 ad=0.21 pd=1.78 as=0.21 ps=1.78 w=1.5 l=0.5
X201 rstring_mux_0.vtrip15.t3 a_2777_n15834# avss.t256 sky130_fd_pr__res_xhigh_po_1p41 l=17.6
X202 avdd.t29 comparator_0.vpp comparator_0.vpp avdd.t21 sky130_fd_pr__pfet_g5v0d10v5 ad=0.0609 pd=0.71 as=0.0609 ps=0.71 w=0.42 l=8
X203 avss.t290 ibias_gen_0.vn1.t13 ibias_gen_0.vp1.t7 avss.t283 sky130_fd_pr__nfet_g5v0d10v5 ad=0.725 pd=5.29 as=0.725 ps=5.29 w=5 l=8
X204 rstring_mux_0.vtrip4.t1 rstring_mux_0.otrip_decoded_avdd[4] vin.t8 avss.t49 sky130_fd_pr__nfet_g5v0d10v5 ad=0.725 pd=5.29 as=0.725 ps=5.29 w=5 l=0.6
X205 avdd.t159 avdd.t158 avdd.t159 avdd.t84 sky130_fd_pr__pfet_g5v0d10v5 ad=0.145 pd=1.29 as=0 ps=0 w=1 l=8
X206 dvss.t170 sky130_fd_sc_hd__inv_4_0.Y ovout.t11 dvss.t169 sky130_fd_pr__nfet_01v8 ad=0.08775 pd=0.92 as=0.08775 ps=0.92 w=0.65 l=0.15
X207 dvdd.t1 otrip_decoded[9].t1 a_329_n1230# dvdd.t0 sky130_fd_pr__pfet_01v8_hvt ad=0.1176 pd=1.12 as=0.2478 ps=2.27 w=0.84 l=0.15
X208 vin.t29 rstring_mux_0.otrip_decoded_avdd[2] rstring_mux_0.vtrip2.t1 avss.t239 sky130_fd_pr__nfet_g5v0d10v5 ad=0.725 pd=5.29 as=0.725 ps=5.29 w=5 l=0.6
X209 a_n14999_9395# a_n14621_1995# avss.t220 sky130_fd_pr__res_xhigh_po_1p41 l=35
X210 a_3155_n11914# a_2777_n15834# avss.t344 sky130_fd_pr__res_xhigh_po_1p41 l=17.6
X211 vin.t52 rstring_mux_0.otrip_decoded_b_avdd[11] rstring_mux_0.vtrip11.t2 avdd.t311 sky130_fd_pr__pfet_g5v0d10v5 ad=0.725 pd=5.29 as=0.725 ps=5.29 w=5 l=0.6
X212 avdd.t319 a_2541_n1142# a_3748_n1478# avdd.t318 sky130_fd_pr__pfet_g5v0d10v5 ad=0.24375 pd=1.825 as=0.3975 ps=3.53 w=1.5 l=0.5
X213 a_n10453_n11914# a_n10831_n15834# avss.t23 sky130_fd_pr__res_xhigh_po_1p41 l=17.6
X214 rstring_mux_0.vtrip8.t1 rstring_mux_0.otrip_decoded_avdd[8] vin.t12 avss.t156 sky130_fd_pr__nfet_g5v0d10v5 ad=0.725 pd=5.29 as=0.725 ps=5.29 w=5 l=0.6
X215 rstring_mux_0.vtrip7.t2 rstring_mux_0.otrip_decoded_avdd[7] vin.t37 avss.t269 sky130_fd_pr__nfet_g5v0d10v5 ad=0.725 pd=5.29 as=0.725 ps=5.29 w=5 l=0.6
X216 a_n10463_9395# a_n10085_1995# avss.t21 sky130_fd_pr__res_xhigh_po_1p41 l=35
X217 dvss.t102 a_n8119_n1230# a_n8019_n1142# dvss.t101 sky130_fd_pr__nfet_g5v0d10v5 ad=0.21 pd=1.78 as=0.21 ps=1.78 w=1.5 l=0.5
X218 dvss.t91 a_6665_n1230# a_6765_n1142# dvss.t78 sky130_fd_pr__nfet_g5v0d10v5 ad=0.21 pd=1.78 as=0.21 ps=1.78 w=1.5 l=0.5
X219 avdd.t261 a_9570_n2256# a_8877_n1142# avdd.t260 sky130_fd_pr__pfet_g5v0d10v5 ad=0.2142 pd=1.99 as=0.2142 ps=1.99 w=0.42 l=1
X220 vin.t73 avdd.t156 vin.t73 avdd.t157 sky130_fd_pr__pfet_g5v0d10v5 ad=0.725 pd=5.29 as=0 ps=0 w=5 l=0.6
X221 vin.t46 avss.t135 vin.t46 avss.t136 sky130_fd_pr__nfet_g5v0d10v5 ad=0.725 pd=5.29 as=0 ps=0 w=5 l=0.6
X222 comparator_0.vnn comparator_0.vnn avdd.t233 avdd.t14 sky130_fd_pr__pfet_g5v0d10v5 ad=0.0609 pd=0.71 as=0.0609 ps=0.71 w=0.42 l=8
X223 avdd.t155 avdd.t153 avdd.t155 avdd.t154 sky130_fd_pr__pfet_g5v0d10v5 ad=0.725 pd=5.29 as=0 ps=0 w=5 l=4
X224 dvss.t281 a_697_n2212# a_1122_n2256# dvss.t280 sky130_fd_pr__nfet_g5v0d10v5 ad=0.21 pd=1.78 as=0.21 ps=1.78 w=1.5 l=0.5
X225 a_8877_n1142# a_8777_n1230# dvss.t83 dvss.t78 sky130_fd_pr__nfet_g5v0d10v5 ad=0.3975 pd=3.53 as=0.21 ps=1.78 w=1.5 l=0.5
X226 a_n18769_n11914# a_n19147_n15834# avss.t236 sky130_fd_pr__res_xhigh_po_1p41 l=17.6
X227 ibias_gen_0.vp.t1 avss.t133 ibias_gen_0.vp.t1 avss.t134 sky130_fd_pr__nfet_g5v0d10v5 ad=0.725 pd=5.29 as=0 ps=0 w=5 l=0.6
X228 rstring_mux_0.vtrip9.t5 rstring_mux_0.vtrip10.t5 avss.t384 sky130_fd_pr__res_xhigh_po_1p41 l=17.6
X229 avss.t191 comparator_0.vn comparator_0.vn avss.t190 sky130_fd_pr__nfet_g5v0d10v5 ad=0.145 pd=1.29 as=0.145 ps=1.29 w=1 l=8
X230 comparator_0.vpp vin.t99 comparator_0.vt comparator_0.vt sky130_fd_pr__nfet_g5v0d10v5 ad=0.0609 pd=0.71 as=0.0609 ps=0.71 w=0.42 l=8
X231 a_n19525_n11914# a_n19147_n15834# avss.t208 sky130_fd_pr__res_xhigh_po_1p41 l=17.6