*SPEF "ieee 1481-1999"
*DESIGN "overvoltage_dig"
*DATE "12:54:59 Thursday April 04, 2024"
*VENDOR "The OpenROAD Project"
*PROGRAM "OpenROAD"
*VERSION "0889970d1790a2617e69f253221b8bd7626e51dc"
*DESIGN_FLOW "NAME_SCOPE LOCAL" "PIN_CAP NONE"
*DIVIDER /
*DELIMITER :
*BUS_DELIMITER []
*T_UNIT 1 NS
*C_UNIT 1 PF
*R_UNIT 1 OHM
*L_UNIT 1 HENRY

*NAME_MAP
*3 otrip[0]
*4 otrip[1]
*5 otrip[2]
*6 otrip[3]
*7 otrip_decoded[0]
*8 otrip_decoded[10]
*9 otrip_decoded[11]
*10 otrip_decoded[12]
*11 otrip_decoded[13]
*12 otrip_decoded[14]
*13 otrip_decoded[15]
*14 otrip_decoded[1]
*15 otrip_decoded[2]
*16 otrip_decoded[3]
*17 otrip_decoded[4]
*18 otrip_decoded[5]
*19 otrip_decoded[6]
*20 otrip_decoded[7]
*21 otrip_decoded[8]
*22 otrip_decoded[9]
*23 net1
*24 net10
*25 net11
*26 net12
*27 net13
*28 net14
*29 net15
*30 net16
*31 net17
*32 net18
*33 net19
*34 net2
*35 net20
*36 net21
*37 net22
*38 net23
*39 net24
*40 net25
*41 net26
*42 net27
*43 net28
*44 net3
*45 net4
*46 net5
*47 net6
*48 net7
*49 net8
*50 net9
*51 FILLER_0_0_100
*52 FILLER_0_0_15
*53 FILLER_0_0_27
*54 FILLER_0_0_29
*55 FILLER_0_0_3
*56 FILLER_0_0_35
*57 FILLER_0_0_42
*58 FILLER_0_0_49
*59 FILLER_0_0_63
*60 FILLER_0_0_69
*61 FILLER_0_0_76
*62 FILLER_0_0_83
*63 FILLER_0_0_85
*64 FILLER_0_0_93
*65 FILLER_0_10_15
*66 FILLER_0_10_27
*67 FILLER_0_10_29
*68 FILLER_0_10_3
*69 FILLER_0_10_41
*70 FILLER_0_10_53
*71 FILLER_0_10_65
*72 FILLER_0_10_77
*73 FILLER_0_10_83
*74 FILLER_0_10_85
*75 FILLER_0_10_97
*76 FILLER_0_11_101
*77 FILLER_0_11_15
*78 FILLER_0_11_27
*79 FILLER_0_11_3
*80 FILLER_0_11_39
*81 FILLER_0_11_51
*82 FILLER_0_11_55
*83 FILLER_0_11_57
*84 FILLER_0_11_69
*85 FILLER_0_11_81
*86 FILLER_0_11_93
*87 FILLER_0_12_15
*88 FILLER_0_12_27
*89 FILLER_0_12_29
*90 FILLER_0_12_3
*91 FILLER_0_12_41
*92 FILLER_0_12_53
*93 FILLER_0_12_65
*94 FILLER_0_12_77
*95 FILLER_0_12_83
*96 FILLER_0_12_85
*97 FILLER_0_12_97
*98 FILLER_0_13_15
*99 FILLER_0_13_27
*100 FILLER_0_13_29
*101 FILLER_0_13_3
*102 FILLER_0_13_41
*103 FILLER_0_13_53
*104 FILLER_0_13_57
*105 FILLER_0_13_69
*106 FILLER_0_13_81
*107 FILLER_0_13_85
*108 FILLER_0_13_97
*109 FILLER_0_1_101
*110 FILLER_0_1_15
*111 FILLER_0_1_23
*112 FILLER_0_1_3
*113 FILLER_0_1_54
*114 FILLER_0_1_67
*115 FILLER_0_1_79
*116 FILLER_0_1_87
*117 FILLER_0_2_15
*118 FILLER_0_2_27
*119 FILLER_0_2_29
*120 FILLER_0_2_3
*121 FILLER_0_2_41
*122 FILLER_0_2_53
*123 FILLER_0_2_59
*124 FILLER_0_2_71
*125 FILLER_0_2_83
*126 FILLER_0_2_85
*127 FILLER_0_3_11
*128 FILLER_0_3_24
*129 FILLER_0_3_3
*130 FILLER_0_3_36
*131 FILLER_0_3_48
*132 FILLER_0_3_57
*133 FILLER_0_3_69
*134 FILLER_0_3_81
*135 FILLER_0_4_100
*136 FILLER_0_4_20
*137 FILLER_0_4_29
*138 FILLER_0_4_41
*139 FILLER_0_4_53
*140 FILLER_0_4_65
*141 FILLER_0_4_7
*142 FILLER_0_4_77
*143 FILLER_0_4_83
*144 FILLER_0_4_85
*145 FILLER_0_5_100
*146 FILLER_0_5_11
*147 FILLER_0_5_23
*148 FILLER_0_5_35
*149 FILLER_0_5_47
*150 FILLER_0_5_55
*151 FILLER_0_5_57
*152 FILLER_0_5_69
*153 FILLER_0_5_81
*154 FILLER_0_5_87
*155 FILLER_0_6_100
*156 FILLER_0_6_26
*157 FILLER_0_6_29
*158 FILLER_0_6_3
*159 FILLER_0_6_41
*160 FILLER_0_6_53
*161 FILLER_0_6_65
*162 FILLER_0_6_77
*163 FILLER_0_6_83
*164 FILLER_0_6_85
*165 FILLER_0_7_21
*166 FILLER_0_7_33
*167 FILLER_0_7_45
*168 FILLER_0_7_53
*169 FILLER_0_7_57
*170 FILLER_0_7_69
*171 FILLER_0_7_7
*172 FILLER_0_7_81
*173 FILLER_0_7_89
*174 FILLER_0_7_98
*175 FILLER_0_8_15
*176 FILLER_0_8_27
*177 FILLER_0_8_29
*178 FILLER_0_8_3
*179 FILLER_0_8_41
*180 FILLER_0_8_53
*181 FILLER_0_8_65
*182 FILLER_0_8_77
*183 FILLER_0_8_83
*184 FILLER_0_8_85
*185 FILLER_0_8_97
*186 FILLER_0_9_19
*187 FILLER_0_9_31
*188 FILLER_0_9_43
*189 FILLER_0_9_55
*190 FILLER_0_9_57
*191 FILLER_0_9_69
*192 FILLER_0_9_7
*193 FILLER_0_9_81
*194 FILLER_0_9_93
*195 PHY_EDGE_ROW_0_Left_14
*196 PHY_EDGE_ROW_0_Right_0
*197 PHY_EDGE_ROW_10_Left_24
*198 PHY_EDGE_ROW_10_Right_10
*199 PHY_EDGE_ROW_11_Left_25
*200 PHY_EDGE_ROW_11_Right_11
*201 PHY_EDGE_ROW_12_Left_26
*202 PHY_EDGE_ROW_12_Right_12
*203 PHY_EDGE_ROW_13_Left_27
*204 PHY_EDGE_ROW_13_Right_13
*205 PHY_EDGE_ROW_1_Left_15
*206 PHY_EDGE_ROW_1_Right_1
*207 PHY_EDGE_ROW_2_Left_16
*208 PHY_EDGE_ROW_2_Right_2
*209 PHY_EDGE_ROW_3_Left_17
*210 PHY_EDGE_ROW_3_Right_3
*211 PHY_EDGE_ROW_4_Left_18
*212 PHY_EDGE_ROW_4_Right_4
*213 PHY_EDGE_ROW_5_Left_19
*214 PHY_EDGE_ROW_5_Right_5
*215 PHY_EDGE_ROW_6_Left_20
*216 PHY_EDGE_ROW_6_Right_6
*217 PHY_EDGE_ROW_7_Left_21
*218 PHY_EDGE_ROW_7_Right_7
*219 PHY_EDGE_ROW_8_Left_22
*220 PHY_EDGE_ROW_8_Right_8
*221 PHY_EDGE_ROW_9_Left_23
*222 PHY_EDGE_ROW_9_Right_9
*223 TAP_TAPCELL_ROW_0_28
*224 TAP_TAPCELL_ROW_0_29
*225 TAP_TAPCELL_ROW_0_30
*226 TAP_TAPCELL_ROW_10_44
*227 TAP_TAPCELL_ROW_10_45
*228 TAP_TAPCELL_ROW_11_46
*229 TAP_TAPCELL_ROW_12_47
*230 TAP_TAPCELL_ROW_12_48
*231 TAP_TAPCELL_ROW_13_49
*232 TAP_TAPCELL_ROW_13_50
*233 TAP_TAPCELL_ROW_13_51
*234 TAP_TAPCELL_ROW_1_31
*235 TAP_TAPCELL_ROW_2_32
*236 TAP_TAPCELL_ROW_2_33
*237 TAP_TAPCELL_ROW_3_34
*238 TAP_TAPCELL_ROW_4_35
*239 TAP_TAPCELL_ROW_4_36
*240 TAP_TAPCELL_ROW_5_37
*241 TAP_TAPCELL_ROW_6_38
*242 TAP_TAPCELL_ROW_6_39
*243 TAP_TAPCELL_ROW_7_40
*244 TAP_TAPCELL_ROW_8_41
*245 TAP_TAPCELL_ROW_8_42
*246 TAP_TAPCELL_ROW_9_43
*247 _00_
*248 _01_
*249 _02_
*250 _03_
*251 _04_
*252 _05_
*253 _06_
*254 _07_
*255 _08_
*256 _09_
*257 _10_
*258 _11_
*259 _12_
*260 _13_
*261 _14_
*262 _15_
*263 fanout21
*264 fanout22
*265 fanout23
*266 fanout24
*267 fanout25
*268 fanout26
*269 fanout27
*270 fanout28
*271 input1
*272 input2
*273 input3
*274 input4
*275 output10
*276 output11
*277 output12
*278 output13
*279 output14
*280 output15
*281 output16
*282 output17
*283 output18
*284 output19
*285 output20
*286 output5
*287 output6
*288 output7
*289 output8
*290 output9

*PORTS
otrip[0] I
otrip[1] I
otrip[2] I
otrip[3] I
otrip_decoded[0] O
otrip_decoded[10] O
otrip_decoded[11] O
otrip_decoded[12] O
otrip_decoded[13] O
otrip_decoded[14] O
otrip_decoded[15] O
otrip_decoded[1] O
otrip_decoded[2] O
otrip_decoded[3] O
otrip_decoded[4] O
otrip_decoded[5] O
otrip_decoded[6] O
otrip_decoded[7] O
otrip_decoded[8] O
otrip_decoded[9] O

*D_NET *3 0.000999325
*CONN
*P otrip[0] I
*I *271:A I *D sky130_fd_sc_hd__clkbuf_1
*CAP
1 otrip[0] 0.000399415
2 *271:A 0.000399415
3 *271:A otrip_decoded[9] 0
4 *271:A *264:A 9.59402e-05
5 *271:A *272:A 0
6 *271:A *23:10 0.000104555
*RES
1 otrip[0] *271:A 11.385 
*END

*D_NET *4 0.000795538
*CONN
*P otrip[1] I
*I *272:A I *D sky130_fd_sc_hd__clkbuf_1
*CAP
1 otrip[1] 0.000397769
2 *272:A 0.000397769
3 *272:A *273:A 0
4 *271:A *272:A 0
*RES
1 otrip[1] *272:A 10.35 
*END

*D_NET *5 0.000988715
*CONN
*P otrip[2] I
*I *273:A I *D sky130_fd_sc_hd__clkbuf_1
*CAP
1 otrip[2] 0.000494358
2 *273:A 0.000494358
3 *273:A *274:A 0
4 *272:A *273:A 0
*RES
1 otrip[2] *273:A 13.17 
*END

*D_NET *6 0.000774185
*CONN
*P otrip[3] I
*I *274:A I *D sky130_fd_sc_hd__clkbuf_1
*CAP
1 otrip[3] 0.000387092
2 *274:A 0.000387092
3 *273:A *274:A 0
*RES
1 otrip[3] *274:A 10.35 
*END

*D_NET *7 0.00133802
*CONN
*P otrip_decoded[0] O
*I *286:X O *D sky130_fd_sc_hd__buf_2
*CAP
1 otrip_decoded[0] 0.000545537
2 *286:X 0.000545537
3 otrip_decoded[0] otrip_decoded[11] 0.000110595
4 otrip_decoded[0] *36:26 0.00013635
*RES
1 *286:X otrip_decoded[0] 5.60423 
*END

*D_NET *8 0.000603412
*CONN
*P otrip_decoded[10] O
*I *287:X O *D sky130_fd_sc_hd__buf_2
*CAP
1 otrip_decoded[10] 0.000255519
2 *287:X 0.000255519
3 otrip_decoded[10] otrip_decoded[5] 3.45293e-05
4 otrip_decoded[10] *287:A 5.78448e-05
*RES
1 *287:X otrip_decoded[10] 5.92503 
*END

*D_NET *9 0.00146154
*CONN
*P otrip_decoded[11] O
*I *288:X O *D sky130_fd_sc_hd__buf_2
*CAP
1 otrip_decoded[11] 0.000569418
2 *288:X 0.000569418
3 otrip_decoded[11] otrip_decoded[15] 0.000149724
4 otrip_decoded[11] *254:A_N 1.52238e-05
5 otrip_decoded[11] *288:A 1.22325e-05
6 otrip_decoded[11] *36:26 3.49301e-05
7 otrip_decoded[0] otrip_decoded[11] 0.000110595
*RES
1 *288:X otrip_decoded[11] 6.47423 
*END

*D_NET *10 0.00066752
*CONN
*P otrip_decoded[12] O
*I *289:X O *D sky130_fd_sc_hd__buf_2
*CAP
1 otrip_decoded[12] 0.000291474
2 *289:X 0.000291474
3 otrip_decoded[12] otrip_decoded[5] 2.24901e-05
4 otrip_decoded[12] otrip_decoded[6] 6.20832e-05
*RES
1 *289:X otrip_decoded[12] 7.1793 
*END

*D_NET *11 0.00119289
*CONN
*P otrip_decoded[13] O
*I *290:X O *D sky130_fd_sc_hd__buf_2
*CAP
1 otrip_decoded[13] 0.000392235
2 *290:X 0.000392235
3 otrip_decoded[13] otrip_decoded[15] 0.000189438
4 otrip_decoded[13] otrip_decoded[8] 0.000187714
5 otrip_decoded[13] *290:A 3.12639e-05
*RES
1 *290:X otrip_decoded[13] 6.11423 
*END

*D_NET *12 0.000597683
*CONN
*P otrip_decoded[14] O
*I *275:X O *D sky130_fd_sc_hd__buf_2
*CAP
1 otrip_decoded[14] 0.000222223
2 *275:X 0.000222223
3 otrip_decoded[14] otrip_decoded[7] 9.25475e-05
4 otrip_decoded[14] *275:A 6.06899e-05
*RES
1 *275:X otrip_decoded[14] 5.92503 
*END

*D_NET *13 0.00130188
*CONN
*P otrip_decoded[15] O
*I *276:X O *D sky130_fd_sc_hd__buf_2
*CAP
1 otrip_decoded[15] 0.000461078
2 *276:X 0.000461078
3 otrip_decoded[15] *254:A_N 4.05569e-05
4 otrip_decoded[11] otrip_decoded[15] 0.000149724
5 otrip_decoded[13] otrip_decoded[15] 0.000189438
*RES
1 *276:X otrip_decoded[15] 6.62423 
*END

*D_NET *14 0.000876668
*CONN
*P otrip_decoded[1] O
*I *277:X O *D sky130_fd_sc_hd__buf_2
*CAP
1 otrip_decoded[1] 0.000438334
2 *277:X 0.000438334
3 otrip_decoded[1] otrip_decoded[4] 0
4 otrip_decoded[1] otrip_decoded[9] 0
*RES
1 *277:X otrip_decoded[1] 10.53 
*END

*D_NET *15 0.000877984
*CONN
*P otrip_decoded[2] O
*I *278:X O *D sky130_fd_sc_hd__buf_2
*CAP
1 otrip_decoded[2] 0.000431248
2 *278:X 0.000431248
3 otrip_decoded[2] otrip_decoded[4] 0
4 otrip_decoded[2] *38:35 1.54878e-05
*RES
1 *278:X otrip_decoded[2] 10.53 
*END

*D_NET *16 0.000636027
*CONN
*P otrip_decoded[3] O
*I *279:X O *D sky130_fd_sc_hd__buf_2
*CAP
1 otrip_decoded[3] 0.000278513
2 *279:X 0.000278513
3 otrip_decoded[3] otrip_decoded[6] 3.84643e-05
4 otrip_decoded[3] *253:D 0
5 otrip_decoded[3] *279:A 4.05358e-05
*RES
1 *279:X otrip_decoded[3] 6.1201 
*END

*D_NET *17 0.000877984
*CONN
*P otrip_decoded[4] O
*I *280:X O *D sky130_fd_sc_hd__buf_2
*CAP
1 otrip_decoded[4] 0.000431248
2 *280:X 0.000431248
3 otrip_decoded[4] *38:29 1.54878e-05
4 otrip_decoded[1] otrip_decoded[4] 0
5 otrip_decoded[2] otrip_decoded[4] 0
*RES
1 *280:X otrip_decoded[4] 10.53 
*END

*D_NET *18 0.000522841
*CONN
*P otrip_decoded[5] O
*I *281:X O *D sky130_fd_sc_hd__buf_2
*CAP
1 otrip_decoded[5] 0.000232911
2 *281:X 0.000232911
3 otrip_decoded[5] otrip_decoded[6] 0
4 otrip_decoded[10] otrip_decoded[5] 3.45293e-05
5 otrip_decoded[12] otrip_decoded[5] 2.24901e-05
*RES
1 *281:X otrip_decoded[5] 6.73043 
*END

*D_NET *19 0.000902936
*CONN
*P otrip_decoded[6] O
*I *282:X O *D sky130_fd_sc_hd__buf_2
*CAP
1 otrip_decoded[6] 0.000388815
2 *282:X 0.000388815
3 otrip_decoded[6] *282:A 3.64998e-06
4 otrip_decoded[6] *289:A 2.11084e-05
5 otrip_decoded[12] otrip_decoded[6] 6.20832e-05
6 otrip_decoded[3] otrip_decoded[6] 3.84643e-05
7 otrip_decoded[5] otrip_decoded[6] 0
*RES
1 *282:X otrip_decoded[6] 8.62043 
*END

*D_NET *20 0.000468148
*CONN
*P otrip_decoded[7] O
*I *283:X O *D sky130_fd_sc_hd__buf_2
*CAP
1 otrip_decoded[7] 0.000139266
2 *283:X 0.000139266
3 otrip_decoded[7] otrip_decoded[8] 8.48184e-05
4 otrip_decoded[7] *275:A 1.22505e-05
5 otrip_decoded[14] otrip_decoded[7] 9.25475e-05
*RES
1 *283:X otrip_decoded[7] 4.90503 
*END

*D_NET *21 0.00113372
*CONN
*P otrip_decoded[8] O
*I *284:X O *D sky130_fd_sc_hd__buf_2
*CAP
1 otrip_decoded[8] 0.000430593
2 *284:X 0.000430593
3 otrip_decoded[13] otrip_decoded[8] 0.000187714
4 otrip_decoded[7] otrip_decoded[8] 8.48184e-05
*RES
1 *284:X otrip_decoded[8] 5.60423 
*END

*D_NET *22 0.000748807
*CONN
*P otrip_decoded[9] O
*I *285:X O *D sky130_fd_sc_hd__buf_2
*CAP
1 otrip_decoded[9] 0.000374404
2 *285:X 0.000374404
3 otrip_decoded[9] *23:10 0
4 otrip_decoded[1] otrip_decoded[9] 0
5 *271:A otrip_decoded[9] 0
*RES
1 *285:X otrip_decoded[9] 10.29 
*END

*D_NET *23 0.00187184
*CONN
*I *270:A I *D sky130_fd_sc_hd__buf_1
*I *269:A I *D sky130_fd_sc_hd__clkbuf_2
*I *271:X O *D sky130_fd_sc_hd__clkbuf_1
*CAP
1 *270:A 0.000131398
2 *269:A 5.14332e-05
3 *271:X 0.000308185
4 *23:10 0.000491016
5 *269:A *267:A 0.000197858
6 *269:A *38:23 8.84295e-05
7 *269:A *42:106 0.000347939
8 *270:A *256:D 4.76051e-05
9 *23:10 *256:D 4.28112e-06
10 *23:10 *264:A 8.73389e-06
11 *23:10 *285:A 6.98629e-05
12 *23:10 *37:10 2.05461e-05
13 otrip_decoded[9] *23:10 0
14 *271:A *23:10 0.000104555
*RES
1 *271:X *23:10 7.905 
2 *23:10 *269:A 6.81 
3 *23:10 *270:A 5.79 
*END

*D_NET *24 0.000787115
*CONN
*I *275:A I *D sky130_fd_sc_hd__buf_2
*I *261:X O *D sky130_fd_sc_hd__and4b_1
*CAP
1 *275:A 0.000286288
2 *261:X 0.000286288
3 *275:A *283:A 0.000141599
4 otrip_decoded[14] *275:A 6.06899e-05
5 otrip_decoded[7] *275:A 1.22505e-05
*RES
1 *261:X *275:A 12.915 
*END

*D_NET *25 0.000524089
*CONN
*I *276:A I *D sky130_fd_sc_hd__buf_2
*I *262:X O *D sky130_fd_sc_hd__and4_1
*CAP
1 *276:A 0.000106688
2 *262:X 0.000106688
3 *276:A *254:A_N 0.000141599
4 *276:A *258:B 9.50342e-06
5 *276:A *290:A 2.75145e-05
6 *276:A *41:25 0.000132096
*RES
1 *262:X *276:A 9.99 
*END

*D_NET *26 0.00021293
*CONN
*I *277:A I *D sky130_fd_sc_hd__buf_2
*I *248:Y O *D sky130_fd_sc_hd__nor4b_1
*CAP
1 *277:A 8.75306e-05
2 *248:Y 8.75306e-05
3 *277:A *280:A 0
4 *277:A *38:29 3.78687e-05
*RES
1 *248:Y *277:A 8.835 
*END

*D_NET *27 0.000252632
*CONN
*I *278:A I *D sky130_fd_sc_hd__buf_2
*I *249:Y O *D sky130_fd_sc_hd__nor4b_1
*CAP
1 *278:A 7.17989e-05
2 *249:Y 7.17989e-05
3 *278:A *251:D_N 3.78687e-05
4 *278:A *280:A 0
5 *278:A *38:35 7.1165e-05
*RES
1 *249:Y *278:A 8.835 
*END

*D_NET *28 0.000796194
*CONN
*I *279:A I *D sky130_fd_sc_hd__buf_2
*I *250:X O *D sky130_fd_sc_hd__and4bb_1
*CAP
1 *279:A 0.000335816
2 *250:X 0.000335816
3 *279:A *253:D 8.40269e-05
4 *279:A *40:46 0
5 otrip_decoded[3] *279:A 4.05358e-05
*RES
1 *250:X *279:A 11.445 
*END

*D_NET *29 0.000295461
*CONN
*I *280:A I *D sky130_fd_sc_hd__buf_2
*I *251:Y O *D sky130_fd_sc_hd__nor4b_1
*CAP
1 *280:A 0.000137058
2 *251:Y 0.000137058
3 *280:A *248:A 4.56429e-06
4 *280:A *251:B 3.75882e-06
5 *280:A *251:D_N 0
6 *280:A *36:36 1.30228e-05
7 *280:A *38:29 0
8 *277:A *280:A 0
9 *278:A *280:A 0
*RES
1 *251:Y *280:A 9.345 
*END

*D_NET *30 0.00020432
*CONN
*I *281:A I *D sky130_fd_sc_hd__buf_2
*I *252:X O *D sky130_fd_sc_hd__and4bb_1
*CAP
1 *281:A 0.00010216
2 *252:X 0.00010216
3 *281:A *257:D 0
*RES
1 *252:X *281:A 8.835 
*END

*D_NET *31 0.000495934
*CONN
*I *282:A I *D sky130_fd_sc_hd__buf_2
*I *253:X O *D sky130_fd_sc_hd__and4bb_1
*CAP
1 *282:A 0.000241876
2 *253:X 0.000241876
3 *282:A *289:A 8.53113e-06
4 otrip_decoded[6] *282:A 3.64998e-06
*RES
1 *253:X *282:A 10.425 
*END

*D_NET *32 0.000875589
*CONN
*I *283:A I *D sky130_fd_sc_hd__buf_2
*I *254:X O *D sky130_fd_sc_hd__and4b_1
*CAP
1 *283:A 0.000208598
2 *254:X 0.000208598
3 *283:A *254:B 1.83756e-05
4 *283:A *255:A 0.000227176
5 *283:A *43:50 7.1242e-05
6 *275:A *283:A 0.000141599
*RES
1 *254:X *283:A 11.775 
*END

*D_NET *33 0.000243443
*CONN
*I *284:A I *D sky130_fd_sc_hd__buf_2
*I *255:Y O *D sky130_fd_sc_hd__nor4b_1
*CAP
1 *284:A 9.01106e-05
2 *255:Y 9.01106e-05
3 *284:A *255:C 4.05358e-05
4 *284:A *261:A_N 9.53428e-06
5 *284:A *261:C 1.31519e-05
6 *284:A *261:D 0
*RES
1 *255:Y *284:A 8.94 
*END

*D_NET *34 0.00438532
*CONN
*I *268:A I *D sky130_fd_sc_hd__buf_1
*I *267:A I *D sky130_fd_sc_hd__clkbuf_2
*I *272:X O *D sky130_fd_sc_hd__clkbuf_1
*CAP
1 *268:A 0.000766256
2 *267:A 0.000105018
3 *272:X 0.000131417
4 *34:8 0.00100269
5 *267:A *256:B_N 0.000122797
6 *267:A *38:23 0.000606981
7 *267:A *42:106 0.000165824
8 *268:A *262:A 0.000155608
9 *268:A *262:D 4.66108e-05
10 *268:A *37:23 0.00101854
11 *268:A *41:6 5.37301e-05
12 *268:A *41:10 1.19928e-05
13 *34:8 *37:10 0
14 *269:A *267:A 0.000197858
*RES
1 *272:X *34:8 5.235 
2 *34:8 *267:A 9.225 
3 *34:8 *268:A 19.725 
*END

*D_NET *35 0.000644915
*CONN
*I *285:A I *D sky130_fd_sc_hd__buf_2
*I *256:X O *D sky130_fd_sc_hd__and4bb_1
*CAP
1 *285:A 0.000206149
2 *256:X 0.000206149
3 *285:A *264:A 8.00113e-05
4 *285:A *37:10 3.61328e-05
5 *285:A *40:100 4.66108e-05
6 *23:10 *285:A 6.98629e-05
*RES
1 *256:X *285:A 10.53 
*END

*D_NET *36 0.0119277
*CONN
*I *247:A I *D sky130_fd_sc_hd__nor4_1
*I *254:A_N I *D sky130_fd_sc_hd__and4b_1
*I *248:A I *D sky130_fd_sc_hd__nor4b_1
*I *249:A I *D sky130_fd_sc_hd__nor4b_1
*I *250:A_N I *D sky130_fd_sc_hd__and4bb_1
*I *259:D I *D sky130_fd_sc_hd__and4bb_1
*I *252:A_N I *D sky130_fd_sc_hd__and4bb_1
*I *257:D I *D sky130_fd_sc_hd__and4bb_1
*I *253:A_N I *D sky130_fd_sc_hd__and4bb_1
*I *251:A I *D sky130_fd_sc_hd__nor4b_1
*I *263:X O *D sky130_fd_sc_hd__clkbuf_2
*CAP
1 *247:A 0
2 *254:A_N 0.00043703
3 *248:A 4.48585e-06
4 *249:A 8.84402e-05
5 *250:A_N 0
6 *259:D 0
7 *252:A_N 0
8 *257:D 9.84723e-05
9 *253:A_N 0.0001099
10 *251:A 0
11 *263:X 9.54047e-05
12 *36:82 0.000226451
13 *36:74 0.000344519
14 *36:57 0.000472097
15 *36:53 0.000311425
16 *36:49 0.000680851
17 *36:36 0.000655005
18 *36:26 0.00228691
19 *36:16 0.00256053
20 *36:10 0.000164846
21 *248:A *38:29 1.12156e-05
22 *249:A *249:B 5.13924e-05
23 *249:A *40:25 0.000264363
24 *249:A *42:38 0.000234499
25 *253:A_N *253:B_N 3.29947e-05
26 *254:A_N *258:B 8.95963e-05
27 *254:A_N *258:D 2.45315e-05
28 *254:A_N *290:A 0.000116182
29 *254:A_N *41:36 8.1235e-05
30 *254:A_N *43:30 0
31 *254:A_N *44:10 0
32 *257:D *252:D 4.77719e-05
33 *257:D *257:C 0.000136296
34 *36:10 *44:10 5.59165e-05
35 *36:16 *247:B 4.77769e-05
36 *36:16 *247:C 2.88357e-05
37 *36:16 *38:6 7.11301e-05
38 *36:26 *247:C 0.000164965
39 *36:26 *38:8 0.000152117
40 *36:36 *251:B 9.12494e-06
41 *36:36 *251:D_N 5.13924e-05
42 *36:36 *38:29 2.03613e-05
43 *36:36 *40:8 0.00014714
44 *36:36 *40:14 0.000122821
45 *36:49 *251:B 7.41798e-05
46 *36:49 *251:D_N 2.21606e-05
47 *36:49 *38:52 3.20418e-05
48 *36:53 *38:52 8.73389e-06
49 *36:53 *40:31 6.43093e-05
50 *36:57 *259:B_N 0
51 *36:57 *38:71 0.000183731
52 *36:74 *252:C 4.85763e-05
53 *36:74 *252:D 3.99753e-05
54 *36:74 *257:B_N 8.53113e-06
55 *36:74 *259:A_N 2.67275e-05
56 *36:74 *259:B_N 0
57 *36:74 *38:71 0.000265164
58 *36:74 *38:75 8.33443e-05
59 *36:82 *252:D 0.000149072
60 *36:82 *42:60 3.69171e-05
61 otrip_decoded[0] *36:26 0.00013635
62 otrip_decoded[11] *254:A_N 1.52238e-05
63 otrip_decoded[11] *36:26 3.49301e-05
64 otrip_decoded[15] *254:A_N 4.05569e-05
65 *276:A *254:A_N 0.000141599
66 *280:A *248:A 4.56429e-06
67 *280:A *36:36 1.30228e-05
68 *281:A *257:D 0
*RES
1 *263:X *36:10 7.235 
2 *36:10 *36:16 3.59 
3 *36:16 *36:26 4.63383 
4 *36:26 *36:36 7.6225 
5 *36:36 *251:A 3.6 
6 *36:36 *36:49 8.195 
7 *36:49 *36:53 2.19 
8 *36:53 *36:57 4.91 
9 *36:57 *253:A_N 5.085 
10 *36:57 *36:74 7.01 
11 *36:74 *36:82 6.355 
12 *36:82 *257:D 7.685 
13 *36:82 *252:A_N 1.6 
14 *36:74 *259:D 1.6 
15 *36:53 *250:A_N 1.6 
16 *36:49 *249:A 9.02 
17 *36:26 *248:A 3.8325 
18 *36:16 *254:A_N 11.865 
19 *36:10 *247:A 1.6 
*END

*D_NET *37 0.00622785
*CONN
*I *262:A I *D sky130_fd_sc_hd__and4_1
*I *255:D_N I *D sky130_fd_sc_hd__nor4b_1
*I *261:D I *D sky130_fd_sc_hd__and4b_1
*I *260:C I *D sky130_fd_sc_hd__and4b_1
*I *258:D I *D sky130_fd_sc_hd__and4b_1
*I *256:C I *D sky130_fd_sc_hd__and4bb_1
*I *264:X O *D sky130_fd_sc_hd__buf_1
*CAP
1 *262:A 8.5005e-05
2 *255:D_N 6.94573e-05
3 *261:D 8.94525e-05
4 *260:C 0
5 *258:D 7.81903e-05
6 *256:C 0
7 *264:X 0.000146034
8 *37:47 0.000321951
9 *37:38 0.000217869
10 *37:25 0.000133018
11 *37:23 0.000970872
12 *37:10 0.0010319
13 *255:D_N *255:A 6.47594e-05
14 *255:D_N *255:B 0.000110683
15 *258:D *258:B 0.000140135
16 *258:D *39:12 9.23578e-05
17 *258:D *43:19 3.48432e-05
18 *258:D *43:30 3.99655e-05
19 *261:D *261:A_N 2.05056e-05
20 *261:D *261:B 1.08758e-05
21 *261:D *261:C 3.0346e-05
22 *37:10 *256:D 9.12494e-06
23 *37:10 *264:A 4.99619e-05
24 *37:23 *256:D 8.14286e-05
25 *37:38 *258:B 8.31518e-05
26 *37:38 *39:12 4.8174e-05
27 *37:38 *39:23 0.000105257
28 *37:38 *41:25 7.23602e-05
29 *37:47 *255:A 5.58741e-05
30 *37:47 *255:B 5.4003e-05
31 *37:47 *39:23 5.33085e-05
32 *37:47 *39:34 0.000193277
33 *37:47 *41:25 6.52181e-05
34 *37:47 *41:36 0.000226562
35 *37:47 *41:47 0.000131868
36 *37:47 *43:50 5.47022e-05
37 *254:A_N *258:D 2.45315e-05
38 *268:A *262:A 0.000155608
39 *268:A *37:23 0.00101854
40 *284:A *261:D 0
41 *285:A *37:10 3.61328e-05
42 *23:10 *37:10 2.05461e-05
43 *34:8 *37:10 0
*RES
1 *264:X *37:10 5.94 
2 *37:10 *256:C 3.6 
3 *37:10 *37:23 17.6 
4 *37:23 *37:25 2 
5 *37:25 *258:D 6.03375 
6 *37:25 *37:38 1.89 
7 *37:38 *260:C 3.6 
8 *37:38 *37:47 5.46 
9 *37:47 *261:D 5.31375 
10 *37:47 *255:D_N 5.43 
11 *37:23 *262:A 3.085 
*END

*D_NET *38 0.0112722
*CONN
*I *247:D I *D sky130_fd_sc_hd__nor4_1
*I *248:C I *D sky130_fd_sc_hd__nor4b_1
*I *251:D_N I *D sky130_fd_sc_hd__nor4b_1
*I *250:B_N I *D sky130_fd_sc_hd__and4bb_1
*I *257:B_N I *D sky130_fd_sc_hd__and4bb_1
*I *259:C I *D sky130_fd_sc_hd__and4bb_1
*I *252:C I *D sky130_fd_sc_hd__and4bb_1
*I *253:D I *D sky130_fd_sc_hd__and4bb_1
*I *249:C I *D sky130_fd_sc_hd__nor4b_1
*I *256:B_N I *D sky130_fd_sc_hd__and4bb_1
*I *265:X O *D sky130_fd_sc_hd__clkbuf_2
*CAP
1 *247:D 0
2 *248:C 0
3 *251:D_N 5.95986e-05
4 *250:B_N 0
5 *257:B_N 0.000214681
6 *259:C 0
7 *252:C 0.000269301
8 *253:D 0.000141544
9 *249:C 2.4414e-05
10 *256:B_N 2.66429e-05
11 *265:X 3.69809e-05
12 *38:75 0.00032608
13 *38:71 0.000392027
14 *38:54 0.000273126
15 *38:52 0.000347111
16 *38:35 0.000525067
17 *38:29 0.000623161
18 *38:23 0.000642884
19 *38:8 0.00042772
20 *38:6 0.00019418
21 *249:C *40:14 2.69153e-05
22 *252:C *252:B_N 4.82919e-05
23 *252:C *252:D 2.4315e-05
24 *252:C *289:A 0.000132044
25 *253:D *250:D 0.000161985
26 *253:D *40:31 0.000162777
27 *253:D *40:37 0.00025221
28 *253:D *42:38 3.66286e-05
29 *256:B_N *42:106 0.000159702
30 *257:B_N *257:A_N 0.000143706
31 *257:B_N *257:C 0
32 *257:B_N *42:60 8.76033e-05
33 *38:6 *247:B 1.42674e-05
34 *38:6 *247:C 8.28018e-06
35 *38:6 *42:106 0.000197862
36 *38:8 *247:C 0.000331693
37 *38:8 *286:A 2.69153e-05
38 *38:8 *42:106 0.000873181
39 *38:23 *247:C 0.000159702
40 *38:23 *40:6 0.0001615
41 *38:23 *40:100 0.000570641
42 *38:23 *42:8 2.88357e-05
43 *38:23 *42:106 1.07593e-05
44 *38:52 *249:B 2.68037e-05
45 *38:52 *40:31 0.000150653
46 *38:52 *42:38 0.000394201
47 *38:54 *40:31 3.66286e-05
48 *38:54 *42:38 4.66108e-05
49 *38:71 *42:49 9.37731e-05
50 *38:71 *42:60 0.00034058
51 otrip_decoded[2] *38:35 1.54878e-05
52 otrip_decoded[3] *253:D 0
53 otrip_decoded[4] *38:29 1.54878e-05
54 *248:A *38:29 1.12156e-05
55 *267:A *256:B_N 0.000122797
56 *267:A *38:23 0.000606981
57 *269:A *38:23 8.84295e-05
58 *277:A *38:29 3.78687e-05
59 *278:A *251:D_N 3.78687e-05
60 *278:A *38:35 7.1165e-05
61 *279:A *253:D 8.40269e-05
62 *280:A *251:D_N 0
63 *280:A *38:29 0
64 *36:16 *38:6 7.11301e-05
65 *36:26 *38:8 0.000152117
66 *36:36 *251:D_N 5.13924e-05
67 *36:36 *38:29 2.03613e-05
68 *36:49 *251:D_N 2.21606e-05
69 *36:49 *38:52 3.20418e-05
70 *36:53 *38:52 8.73389e-06
71 *36:57 *38:71 0.000183731
72 *36:74 *252:C 4.85763e-05
73 *36:74 *257:B_N 8.53113e-06
74 *36:74 *38:71 0.000265164
75 *36:74 *38:75 8.33443e-05
*RES
1 *265:X *38:6 3.43 
2 *38:6 *38:8 8.04 
3 *38:8 *256:B_N 3.085 
4 *38:8 *38:23 11.795 
5 *38:23 *38:29 6.935 
6 *38:29 *38:35 4.52 
7 *38:35 *249:C 4.05 
8 *38:35 *38:52 9.665 
9 *38:52 *38:54 0.45 
10 *38:54 *253:D 9.935 
11 *38:54 *38:71 7.205 
12 *38:71 *38:75 2.795 
13 *38:75 *252:C 5.155 
14 *38:75 *259:C 1.6 
15 *38:71 *257:B_N 7.665 
16 *38:52 *250:B_N 1.6 
17 *38:29 *251:D_N 7.235 
18 *38:23 *248:C 3.6 
19 *38:6 *247:D 1.6 
*END

*D_NET *39 0.0031837
*CONN
*I *258:A_N I *D sky130_fd_sc_hd__and4b_1
*I *254:D I *D sky130_fd_sc_hd__and4b_1
*I *255:C I *D sky130_fd_sc_hd__nor4b_1
*I *261:C I *D sky130_fd_sc_hd__and4b_1
*I *260:B I *D sky130_fd_sc_hd__and4b_1
*I *262:D I *D sky130_fd_sc_hd__and4_1
*I *266:X O *D sky130_fd_sc_hd__buf_1
*CAP
1 *258:A_N 3.43921e-05
2 *254:D 2.7729e-05
3 *255:C 6.42614e-05
4 *261:C 5.27489e-05
5 *260:B 0
6 *262:D 1.65033e-05
7 *266:X 3.52665e-05
8 *39:42 0.000309392
9 *39:34 0.000278437
10 *39:23 0.000108155
11 *39:12 0.000218795
12 *39:6 0.000222122
13 *254:D *254:B 4.54455e-05
14 *254:D *254:C 5.83121e-06
15 *255:C *255:B 0.000156842
16 *255:C *41:47 9.50342e-06
17 *261:C *261:A_N 0.000129296
18 *261:C *261:B 4.66108e-05
19 *262:D *41:10 2.49909e-05
20 *39:6 *266:A 1.08105e-05
21 *39:12 *258:B 6.72833e-06
22 *39:12 *266:A 1.34618e-05
23 *39:12 *43:30 0.000134497
24 *39:23 *43:30 7.9642e-06
25 *39:23 *43:39 0.00012667
26 *39:23 *43:50 2.23922e-05
27 *39:34 *43:50 0.000202781
28 *39:42 *254:B 4.66108e-05
29 *39:42 *254:C 4.41506e-05
30 *39:42 *41:36 3.25831e-05
31 *39:42 *41:47 0.000125705
32 *258:D *39:12 9.23578e-05
33 *261:D *261:C 3.0346e-05
34 *268:A *262:D 4.66108e-05
35 *284:A *255:C 4.05358e-05
36 *284:A *261:C 1.31519e-05
37 *37:38 *39:12 4.8174e-05
38 *37:38 *39:23 0.000105257
39 *37:47 *39:23 5.33085e-05
40 *37:47 *39:34 0.000193277
*RES
1 *266:X *39:6 2.05 
2 *39:6 *39:12 4.775 
3 *39:12 *262:D 4.05 
4 *39:12 *39:23 1.89 
5 *39:23 *260:B 3.6 
6 *39:23 *39:34 4.4 
7 *39:34 *39:42 5.39 
8 *39:42 *261:C 5.1 
9 *39:42 *255:C 5.49 
10 *39:34 *254:D 2.14375 
11 *39:6 *258:A_N 2.215 
*END

*D_NET *40 0.00867437
*CONN
*I *247:C I *D sky130_fd_sc_hd__nor4_1
*I *256:A_N I *D sky130_fd_sc_hd__and4bb_1
*I *248:B I *D sky130_fd_sc_hd__nor4b_1
*I *251:C I *D sky130_fd_sc_hd__nor4b_1
*I *259:B_N I *D sky130_fd_sc_hd__and4bb_1
*I *250:C I *D sky130_fd_sc_hd__and4bb_1
*I *257:C I *D sky130_fd_sc_hd__and4bb_1
*I *252:B_N I *D sky130_fd_sc_hd__and4bb_1
*I *253:C I *D sky130_fd_sc_hd__and4bb_1
*I *249:D_N I *D sky130_fd_sc_hd__nor4b_1
*I *267:X O *D sky130_fd_sc_hd__clkbuf_2
*CAP
1 *247:C 0.000598451
2 *256:A_N 0
3 *248:B 1.78761e-05
4 *251:C 2.53955e-05
5 *259:B_N 0.000432849
6 *250:C 0
7 *257:C 0.000163601
8 *252:B_N 1.16861e-05
9 *253:C 0
10 *249:D_N 2.57941e-05
11 *267:X 0
12 *40:100 0.000859131
13 *40:46 0.000449179
14 *40:37 0.000409716
15 *40:31 0.000254653
16 *40:25 0.000714244
17 *40:14 0.000406926
18 *40:8 0.000305075
19 *40:6 0.00023208
20 *40:4 0.000413771
21 *247:C *286:A 3.37104e-05
22 *251:C *248:D_N 3.5678e-06
23 *251:C *42:19 2.4991e-05
24 *252:B_N *289:A 4.66108e-05
25 *257:C *257:A_N 0
26 *257:C *289:A 0
27 *259:B_N *259:A_N 4.9253e-06
28 *259:B_N *42:38 3.82758e-05
29 *40:6 *42:8 5.8403e-05
30 *40:8 *42:8 3.21772e-05
31 *40:8 *42:19 2.89299e-05
32 *40:14 *42:19 1.03502e-05
33 *40:14 *42:23 0.00016233
34 *40:25 *42:38 2.50325e-05
35 *40:46 *289:A 0
36 *249:A *40:25 0.000264363
37 *249:C *40:14 2.69153e-05
38 *252:C *252:B_N 4.82919e-05
39 *253:D *40:31 0.000162777
40 *253:D *40:37 0.00025221
41 *257:B_N *257:C 0
42 *257:D *257:C 0.000136296
43 *279:A *40:46 0
44 *285:A *40:100 4.66108e-05
45 *36:16 *247:C 2.88357e-05
46 *36:26 *247:C 0.000164965
47 *36:36 *40:8 0.00014714
48 *36:36 *40:14 0.000122821
49 *36:53 *40:31 6.43093e-05
50 *36:57 *259:B_N 0
51 *36:74 *259:B_N 0
52 *38:6 *247:C 8.28018e-06
53 *38:8 *247:C 0.000331693
54 *38:23 *247:C 0.000159702
55 *38:23 *40:6 0.0001615
56 *38:23 *40:100 0.000570641
57 *38:52 *40:31 0.000150653
58 *38:54 *40:31 3.66286e-05
*RES
1 *267:X *40:4 1.6 
2 *40:4 *40:6 2.865 
3 *40:6 *40:8 1.83 
4 *40:8 *40:14 4.875 
5 *40:14 *249:D_N 2.215 
6 *40:14 *40:25 5.675 
7 *40:25 *40:31 5.57 
8 *40:31 *40:37 4.865 
9 *40:37 *253:C 3.6 
10 *40:37 *40:46 4.44 
11 *40:46 *252:B_N 4.05 
12 *40:46 *257:C 6.45 
13 *40:31 *250:C 1.6 
14 *40:25 *259:B_N 10.365 
15 *40:8 *251:C 2.605 
16 *40:6 *248:B 1.96 
17 *40:4 *40:100 5.28 
18 *40:100 *256:A_N 1.6 
19 *40:100 *247:C 12.175 
*END

*D_NET *41 0.00333575
*CONN
*I *262:C I *D sky130_fd_sc_hd__and4_1
*I *255:B I *D sky130_fd_sc_hd__nor4b_1
*I *261:B I *D sky130_fd_sc_hd__and4b_1
*I *254:C I *D sky130_fd_sc_hd__and4b_1
*I *260:A_N I *D sky130_fd_sc_hd__and4b_1
*I *258:B I *D sky130_fd_sc_hd__and4b_1
*I *268:X O *D sky130_fd_sc_hd__buf_1
*CAP
1 *262:C 0
2 *255:B 3.80364e-05
3 *261:B 2.32144e-05
4 *254:C 7.14599e-05
5 *260:A_N 0.000125151
6 *258:B 0.000132687
7 *268:X 0.000123959
8 *41:47 0.000110115
9 *41:36 0.000199911
10 *41:25 0.000241602
11 *41:10 0.000241258
12 *41:6 0.000195667
13 *258:B *288:A 1.77945e-05
14 *258:B *43:30 1.54665e-05
15 *260:A_N *260:D 6.33103e-05
16 *41:36 *290:A 1.01661e-05
17 *254:A_N *258:B 8.95963e-05
18 *254:A_N *41:36 8.1235e-05
19 *254:D *254:C 5.83121e-06
20 *255:C *255:B 0.000156842
21 *255:C *41:47 9.50342e-06
22 *255:D_N *255:B 0.000110683
23 *258:D *258:B 0.000140135
24 *261:C *261:B 4.66108e-05
25 *261:D *261:B 1.08758e-05
26 *262:D *41:10 2.49909e-05
27 *268:A *41:6 5.37301e-05
28 *268:A *41:10 1.19928e-05
29 *276:A *258:B 9.50342e-06
30 *276:A *41:25 0.000132096
31 *37:38 *258:B 8.31518e-05
32 *37:38 *41:25 7.23602e-05
33 *37:47 *255:B 5.4003e-05
34 *37:47 *41:25 6.52181e-05
35 *37:47 *41:36 0.000226562
36 *37:47 *41:47 0.000131868
37 *39:12 *258:B 6.72833e-06
38 *39:42 *254:C 4.41506e-05
39 *39:42 *41:36 3.25831e-05
40 *39:42 *41:47 0.000125705
*RES
1 *268:X *41:6 3.085 
2 *41:6 *41:10 2.795 
3 *41:10 *258:B 7.155 
4 *41:10 *41:25 1.635 
5 *41:25 *260:A_N 5.43 
6 *41:25 *41:36 2.655 
7 *41:36 *254:C 4.395 
8 *41:36 *41:47 1.635 
9 *41:47 *261:B 4.05 
10 *41:47 *255:B 5.49 
11 *41:6 *262:C 1.6 
*END

*D_NET *42 0.0124984
*CONN
*I *254:B I *D sky130_fd_sc_hd__and4b_1
*I *247:B I *D sky130_fd_sc_hd__nor4_1
*I *251:B I *D sky130_fd_sc_hd__nor4b_1
*I *257:A_N I *D sky130_fd_sc_hd__and4bb_1
*I *259:A_N I *D sky130_fd_sc_hd__and4bb_1
*I *252:D I *D sky130_fd_sc_hd__and4bb_1
*I *253:B_N I *D sky130_fd_sc_hd__and4bb_1
*I *250:D I *D sky130_fd_sc_hd__and4bb_1
*I *249:B I *D sky130_fd_sc_hd__nor4b_1
*I *248:D_N I *D sky130_fd_sc_hd__nor4b_1
*I *269:X O *D sky130_fd_sc_hd__clkbuf_2
*CAP
1 *254:B 0.000503752
2 *247:B 0.000141715
3 *251:B 3.23527e-05
4 *257:A_N 8.50324e-05
5 *259:A_N 0.000100928
6 *252:D 0.000178213
7 *253:B_N 4.90744e-05
8 *250:D 0.000105121
9 *249:B 1.77975e-05
10 *248:D_N 1.71694e-05
11 *269:X 0
12 *42:106 0.00192584
13 *42:62 0.000279141
14 *42:60 0.000292156
15 *42:49 0.000312613
16 *42:38 0.000507219
17 *42:23 0.000565615