*SPEF "ieee 1481-1999"
*DESIGN "overvoltage_dig"
*DATE "12:54:59 Thursday April 04, 2024"
*VENDOR "The OpenROAD Project"
*PROGRAM "OpenROAD"
*VERSION "0889970d1790a2617e69f253221b8bd7626e51dc"
*DESIGN_FLOW "NAME_SCOPE LOCAL" "PIN_CAP NONE"
*DIVIDER /
*DELIMITER :
*BUS_DELIMITER []
*T_UNIT 1 NS
*C_UNIT 1 PF
*R_UNIT 1 OHM
*L_UNIT 1 HENRY

*NAME_MAP
*3 otrip[0]
*4 otrip[1]
*5 otrip[2]
*6 otrip[3]
*7 otrip_decoded[0]
*8 otrip_decoded[10]
*9 otrip_decoded[11]
*10 otrip_decoded[12]
*11 otrip_decoded[13]
*12 otrip_decoded[14]
*13 otrip_decoded[15]
*14 otrip_decoded[1]
*15 otrip_decoded[2]
*16 otrip_decoded[3]
*17 otrip_decoded[4]
*18 otrip_decoded[5]
*19 otrip_decoded[6]
*20 otrip_decoded[7]
*21 otrip_decoded[8]
*22 otrip_decoded[9]
*23 net1
*24 net10
*25 net11
*26 net12
*27 net13
*28 net14
*29 net15
*30 net16
*31 net17
*32 net18
*33 net19
*34 net2
*35 net20
*36 net21
*37 net22
*38 net23
*39 net24
*40 net25
*41 net26
*42 net27
*43 net28
*44 net3
*45 net4
*46 net5
*47 net6
*48 net7
*49 net8
*50 net9
*51 FILLER_0_0_100
*52 FILLER_0_0_15
*53 FILLER_0_0_27
*54 FILLER_0_0_29
*55 FILLER_0_0_3
*56 FILLER_0_0_35
*57 FILLER_0_0_42
*58 FILLER_0_0_49
*59 FILLER_0_0_63
*60 FILLER_0_0_69
*61 FILLER_0_0_76
*62 FILLER_0_0_83
*63 FILLER_0_0_85
*64 FILLER_0_0_93
*65 FILLER_0_10_15
*66 FILLER_0_10_27
*67 FILLER_0_10_29
*68 FILLER_0_10_3
*69 FILLER_0_10_41
*70 FILLER_0_10_53
*71 FILLER_0_10_65
*72 FILLER_0_10_77
*73 FILLER_0_10_83
*74 FILLER_0_10_85
*75 FILLER_0_10_97
*76 FILLER_0_11_101
*77 FILLER_0_11_15
*78 FILLER_0_11_27
*79 FILLER_0_11_3
*80 FILLER_0_11_39
*81 FILLER_0_11_51
*82 FILLER_0_11_55
*83 FILLER_0_11_57
*84 FILLER_0_11_69
*85 FILLER_0_11_81
*86 FILLER_0_11_93
*87 FILLER_0_12_15
*88 FILLER_0_12_27
*89 FILLER_0_12_29
*90 FILLER_0_12_3
*91 FILLER_0_12_41
*92 FILLER_0_12_53
*93 FILLER_0_12_65
*94 FILLER_0_12_77
*95 FILLER_0_12_83
*96 FILLER_0_12_85
*97 FILLER_0_12_97
*98 FILLER_0_13_15
*99 FILLER_0_13_27
*100 FILLER_0_13_29
*101 FILLER_0_13_3
*102 FILLER_0_13_41
*103 FILLER_0_13_53
*104 FILLER_0_13_57
*105 FILLER_0_13_69
*106 FILLER_0_13_81
*107 FILLER_0_13_85
*108 FILLER_0_13_97
*109 FILLER_0_1_101
*110 FILLER_0_1_15
*111 FILLER_0_1_23
*112 FILLER_0_1_3
*113 FILLER_0_1_54
*114 FILLER_0_1_67
*115 FILLER_0_1_79
*116 FILLER_0_1_87
*117 FILLER_0_2_15
*118 FILLER_0_2_27
*119 FILLER_0_2_29
*120 FILLER_0_2_3
*121 FILLER_0_2_41
*122 FILLER_0_2_53
*123 FILLER_0_2_59
*124 FILLER_0_2_71
*125 FILLER_0_2_83
*126 FILLER_0_2_85
*127 FILLER_0_3_11
*128 FILLER_0_3_24
*129 FILLER_0_3_3
*130 FILLER_0_3_36
*131 FILLER_0_3_48
*132 FILLER_0_3_57
*133 FILLER_0_3_69
*134 FILLER_0_3_81
*135 FILLER_0_4_100
*136 FILLER_0_4_20
*137 FILLER_0_4_29
*138 FILLER_0_4_41
*139 FILLER_0_4_53
*140 FILLER_0_4_65
*141 FILLER_0_4_7
*142 FILLER_0_4_77
*143 FILLER_0_4_83
*144 FILLER_0_4_85
*145 FILLER_0_5_100
*146 FILLER_0_5_11
*147 FILLER_0_5_23
*148 FILLER_0_5_35
*149 FILLER_0_5_47
*150 FILLER_0_5_55
*151 FILLER_0_5_57
*152 FILLER_0_5_69
*153 FILLER_0_5_81
*154 FILLER_0_5_87
*155 FILLER_0_6_100
*156 FILLER_0_6_26
*157 FILLER_0_6_29
*158 FILLER_0_6_3
*159 FILLER_0_6_41
*160 FILLER_0_6_53
*161 FILLER_0_6_65
*162 FILLER_0_6_77
*163 FILLER_0_6_83
*164 FILLER_0_6_85
*165 FILLER_0_7_21
*166 FILLER_0_7_33
*167 FILLER_0_7_45
*168 FILLER_0_7_53
*169 FILLER_0_7_57
*170 FILLER_0_7_69
*171 FILLER_0_7_7
*172 FILLER_0_7_81
*173 FILLER_0_7_89
*174 FILLER_0_7_98
*175 FILLER_0_8_15
*176 FILLER_0_8_27
*177 FILLER_0_8_29
*178 FILLER_0_8_3
*179 FILLER_0_8_41
*180 FILLER_0_8_53
*181 FILLER_0_8_65
*182 FILLER_0_8_77
*183 FILLER_0_8_83
*184 FILLER_0_8_85
*185 FILLER_0_8_97
*186 FILLER_0_9_19
*187 FILLER_0_9_31
*188 FILLER_0_9_43
*189 FILLER_0_9_55
*190 FILLER_0_9_57
*191 FILLER_0_9_69
*192 FILLER_0_9_7
*193 FILLER_0_9_81
*194 FILLER_0_9_93
*195 PHY_EDGE_ROW_0_Left_14
*196 PHY_EDGE_ROW_0_Right_0
*197 PHY_EDGE_ROW_10_Left_24
*198 PHY_EDGE_ROW_10_Right_10
*199 PHY_EDGE_ROW_11_Left_25
*200 PHY_EDGE_ROW_11_Right_11
*201 PHY_EDGE_ROW_12_Left_26
*202 PHY_EDGE_ROW_12_Right_12
*203 PHY_EDGE_ROW_13_Left_27
*204 PHY_EDGE_ROW_13_Right_13
*205 PHY_EDGE_ROW_1_Left_15
*206 PHY_EDGE_ROW_1_Right_1
*207 PHY_EDGE_ROW_2_Left_16
*208 PHY_EDGE_ROW_2_Right_2
*209 PHY_EDGE_ROW_3_Left_17
*210 PHY_EDGE_ROW_3_Right_3
*211 PHY_EDGE_ROW_4_Left_18
*212 PHY_EDGE_ROW_4_Right_4
*213 PHY_EDGE_ROW_5_Left_19
*214 PHY_EDGE_ROW_5_Right_5
*215 PHY_EDGE_ROW_6_Left_20
*216 PHY_EDGE_ROW_6_Right_6
*217 PHY_EDGE_ROW_7_Left_21
*218 PHY_EDGE_ROW_7_Right_7
*219 PHY_EDGE_ROW_8_Left_22
*220 PHY_EDGE_ROW_8_Right_8
*221 PHY_EDGE_ROW_9_Left_23
*222 PHY_EDGE_ROW_9_Right_9
*223 TAP_TAPCELL_ROW_0_28
*224 TAP_TAPCELL_ROW_0_29
*225 TAP_TAPCELL_ROW_0_30
*226 TAP_TAPCELL_ROW_10_44
*227 TAP_TAPCELL_ROW_10_45
*228 TAP_TAPCELL_ROW_11_46
*229 TAP_TAPCELL_ROW_12_47
*230 TAP_TAPCELL_ROW_12_48
*231 TAP_TAPCELL_ROW_13_49
*232 TAP_TAPCELL_ROW_13_50
*233 TAP_TAPCELL_ROW_13_51
*234 TAP_TAPCELL_ROW_1_31
*235 TAP_TAPCELL_ROW_2_32
*236 TAP_TAPCELL_ROW_2_33
*237 TAP_TAPCELL_ROW_3_34
*238 TAP_TAPCELL_ROW_4_35
*239 TAP_TAPCELL_ROW_4_36
*240 TAP_TAPCELL_ROW_5_37
*241 TAP_TAPCELL_ROW_6_38
*242 TAP_TAPCELL_ROW_6_39
*243 TAP_TAPCELL_ROW_7_40
*244 TAP_TAPCELL_ROW_8_41
*245 TAP_TAPCELL_ROW_8_42
*246 TAP_TAPCELL_ROW_9_43
*247 _00_
*248 _01_
*249 _02_
*250 _03_
*251 _04_
*252 _05_
*253 _06_
*254 _07_
*255 _08_
*256 _09_
*257 _10_
*258 _11_
*259 _12_
*260 _13_
*261 _14_
*262 _15_
*263 fanout21
*264 fanout22
*265 fanout23
*266 fanout24
*267 fanout25
*268 fanout26
*269 fanout27
*270 fanout28
*271 input1
*272 input2
*273 input3
*274 input4
*275 output10
*276 output11
*277 output12
*278 output13
*279 output14
*280 output15
*281 output16
*282 output17
*283 output18
*284 output19
*285 output20
*286 output5
*287 output6
*288 output7
*289 output8
*290 output9

*PORTS
otrip[0] I
otrip[1] I
otrip[2] I
otrip[3] I
otrip_decoded[0] O
otrip_decoded[10] O
otrip_decoded[11] O
otrip_decoded[12] O
otrip_decoded[13] O
otrip_decoded[14] O
otrip_decoded[15] O
otrip_decoded[1] O
otrip_decoded[2] O
otrip_decoded[3] O
otrip_decoded[4] O
otrip_decoded[5] O
otrip_decoded[6] O
otrip_decoded[7] O
otrip_decoded[8] O
otrip_decoded[9] O

*D_NET *3 0.00107464
*CONN
*P otrip[0] I
*I *271:A I *D sky130_fd_sc_hd__clkbuf_1
*CAP
1 otrip[0] 0.000430629
2 *271:A 0.000430629
3 *271:A otrip_decoded[9] 0
4 *271:A *264:A 0.000101706
5 *271:A *272:A 0
6 *271:A *23:10 0.000111674
*RES
1 otrip[0] *271:A 23.0679 
*END

*D_NET *4 0.000850786
*CONN
*P otrip[1] I
*I *272:A I *D sky130_fd_sc_hd__clkbuf_1
*CAP
1 otrip[1] 0.000425393
2 *272:A 0.000425393
3 *272:A *273:A 0
4 *271:A *272:A 0
*RES
1 otrip[1] *272:A 21.8357 
*END

*D_NET *5 0.00105444
*CONN
*P otrip[2] I
*I *273:A I *D sky130_fd_sc_hd__clkbuf_1
*CAP
1 otrip[2] 0.000527221
2 *273:A 0.000527221
3 *273:A *274:A 0
4 *272:A *273:A 0
*RES
1 otrip[2] *273:A 25.1929 
*END

*D_NET *6 0.000825107
*CONN
*P otrip[3] I
*I *274:A I *D sky130_fd_sc_hd__clkbuf_1
*CAP
1 otrip[3] 0.000412553
2 *274:A 0.000412553
3 *273:A *274:A 0
*RES
1 otrip[3] *274:A 21.8357 
*END

*D_NET *7 0.00145568
*CONN
*P otrip_decoded[0] O
*I *286:X O *D sky130_fd_sc_hd__buf_2
*CAP
1 otrip_decoded[0] 0.000593352
2 *286:X 0.000593352
3 otrip_decoded[0] otrip_decoded[11] 0.000106143
4 otrip_decoded[0] *36:26 0.000162832
*RES
1 *286:X otrip_decoded[0] 19.0597 
*END

*D_NET *8 0.000648794
*CONN
*P otrip_decoded[10] O
*I *287:X O *D sky130_fd_sc_hd__buf_2
*CAP
1 otrip_decoded[10] 0.000277491
2 *287:X 0.000277491
3 otrip_decoded[10] otrip_decoded[5] 3.45861e-05
4 otrip_decoded[10] *287:A 5.92267e-05
*RES
1 *287:X otrip_decoded[10] 19.4092 
*END

*D_NET *9 0.00155288
*CONN
*P otrip_decoded[11] O
*I *288:X O *D sky130_fd_sc_hd__buf_2
*CAP
1 otrip_decoded[11] 0.000620176
2 *288:X 0.000620176
3 otrip_decoded[11] otrip_decoded[15] 0.000145162
4 otrip_decoded[11] *254:A_N 1.46017e-05
5 otrip_decoded[11] *288:A 1.19813e-05
6 otrip_decoded[11] *36:26 3.46362e-05
7 otrip_decoded[0] otrip_decoded[11] 0.000106143
*RES
1 *288:X otrip_decoded[11] 20.0954 
*END

*D_NET *10 0.000733257
*CONN
*P otrip_decoded[12] O
*I *289:X O *D sky130_fd_sc_hd__buf_2
*CAP
1 otrip_decoded[12] 0.000323667
2 *289:X 0.000323667
3 otrip_decoded[12] otrip_decoded[5] 2.25951e-05
4 otrip_decoded[12] otrip_decoded[6] 6.33269e-05
*RES
1 *289:X otrip_decoded[12] 20.891 
*END

*D_NET *11 0.00128521
*CONN
*P otrip_decoded[13] O
*I *290:X O *D sky130_fd_sc_hd__buf_2
*CAP
1 otrip_decoded[13] 0.000438368
2 *290:X 0.000438368
3 otrip_decoded[13] otrip_decoded[15] 0.000189341
4 otrip_decoded[13] otrip_decoded[8] 0.000187602
5 otrip_decoded[13] *290:A 3.15282e-05
*RES
1 *290:X otrip_decoded[13] 19.6669 
*END

*D_NET *12 0.000640218
*CONN
*P otrip_decoded[14] O
*I *275:X O *D sky130_fd_sc_hd__buf_2
*CAP
1 otrip_decoded[14] 0.000242298
2 *275:X 0.000242298
3 otrip_decoded[14] otrip_decoded[7] 9.28756e-05
4 otrip_decoded[14] *275:A 6.27457e-05
*RES
1 *275:X otrip_decoded[14] 19.4092 
*END

*D_NET *13 0.00139655
*CONN
*P otrip_decoded[15] O
*I *276:X O *D sky130_fd_sc_hd__buf_2
*CAP
1 otrip_decoded[15] 0.00051144
2 *276:X 0.00051144
3 otrip_decoded[15] *254:A_N 3.91668e-05
4 otrip_decoded[11] otrip_decoded[15] 0.000145162
5 otrip_decoded[13] otrip_decoded[15] 0.000189341
*RES
1 *276:X otrip_decoded[15] 20.274 
*END

*D_NET *14 0.000950737
*CONN
*P otrip_decoded[1] O
*I *277:X O *D sky130_fd_sc_hd__buf_2
*CAP
1 otrip_decoded[1] 0.000475368
2 *277:X 0.000475368
3 otrip_decoded[1] otrip_decoded[4] 0
4 otrip_decoded[1] otrip_decoded[9] 0
*RES
1 *277:X otrip_decoded[1] 22.05 
*END

*D_NET *15 0.000951896
*CONN
*P otrip_decoded[2] O
*I *278:X O *D sky130_fd_sc_hd__buf_2
*CAP
1 otrip_decoded[2] 0.000468051
2 *278:X 0.000468051
3 otrip_decoded[2] otrip_decoded[4] 0
4 otrip_decoded[2] *38:35 1.57931e-05
*RES
1 *278:X otrip_decoded[2] 22.05 
*END

*D_NET *16 0.000682365
*CONN
*P otrip_decoded[3] O
*I *279:X O *D sky130_fd_sc_hd__buf_2
*CAP
1 otrip_decoded[3] 0.000301065
2 *279:X 0.000301065
3 otrip_decoded[3] otrip_decoded[6] 3.8644e-05
4 otrip_decoded[3] *253:D 0
5 otrip_decoded[3] *279:A 4.15914e-05
*RES
1 *279:X otrip_decoded[3] 19.6505 
*END

*D_NET *17 0.000951896
*CONN
*P otrip_decoded[4] O
*I *280:X O *D sky130_fd_sc_hd__buf_2
*CAP
1 otrip_decoded[4] 0.000468051
2 *280:X 0.000468051
3 otrip_decoded[4] *38:29 1.57931e-05
4 otrip_decoded[1] otrip_decoded[4] 0
5 otrip_decoded[2] otrip_decoded[4] 0
*RES
1 *280:X otrip_decoded[4] 22.05 
*END

*D_NET *18 0.000565693
*CONN
*P otrip_decoded[5] O
*I *281:X O *D sky130_fd_sc_hd__buf_2
*CAP
1 otrip_decoded[5] 0.000254256
2 *281:X 0.000254256
3 otrip_decoded[5] otrip_decoded[6] 0
4 otrip_decoded[10] otrip_decoded[5] 3.45861e-05
5 otrip_decoded[12] otrip_decoded[5] 2.25951e-05
*RES
1 *281:X otrip_decoded[5] 20.3518 
*END

*D_NET *19 0.000998137
*CONN
*P otrip_decoded[6] O
*I *282:X O *D sky130_fd_sc_hd__buf_2
*CAP
1 otrip_decoded[6] 0.000434867
2 *282:X 0.000434867
3 otrip_decoded[6] *282:A 3.69047e-06
4 otrip_decoded[6] *289:A 2.27416e-05
5 otrip_decoded[12] otrip_decoded[6] 6.33269e-05
6 otrip_decoded[3] otrip_decoded[6] 3.8644e-05
7 otrip_decoded[5] otrip_decoded[6] 0
*RES
1 *282:X otrip_decoded[6] 22.6018 
*END

*D_NET *20 0.000495295
*CONN
*P otrip_decoded[7] O
*I *283:X O *D sky130_fd_sc_hd__buf_2
*CAP
1 otrip_decoded[7] 0.000152657
2 *283:X 0.000152657
3 otrip_decoded[7] otrip_decoded[8] 8.42476e-05
4 otrip_decoded[7] *275:A 1.28585e-05
5 otrip_decoded[14] otrip_decoded[7] 9.28756e-05
*RES
1 *283:X otrip_decoded[7] 18.1949 
*END

*D_NET *21 0.00121894
*CONN
*P otrip_decoded[8] O
*I *284:X O *D sky130_fd_sc_hd__buf_2
*CAP
1 otrip_decoded[8] 0.000473545
2 *284:X 0.000473545
3 otrip_decoded[13] otrip_decoded[8] 0.000187602
4 otrip_decoded[7] otrip_decoded[8] 8.42476e-05
*RES
1 *284:X otrip_decoded[8] 19.0597 
*END

*D_NET *22 0.000799501
*CONN
*P otrip_decoded[9] O
*I *285:X O *D sky130_fd_sc_hd__buf_2
*CAP
1 otrip_decoded[9] 0.00039975
2 *285:X 0.00039975
3 otrip_decoded[9] *23:10 0
4 otrip_decoded[1] otrip_decoded[9] 0
5 *271:A otrip_decoded[9] 0
*RES
1 *285:X otrip_decoded[9] 21.7643 
*END

*D_NET *23 0.0021122
*CONN
*I *270:A I *D sky130_fd_sc_hd__buf_1
*I *269:A I *D sky130_fd_sc_hd__clkbuf_2
*I *271:X O *D sky130_fd_sc_hd__clkbuf_1
*CAP
1 *270:A 0.000146613
2 *269:A 5.66716e-05
3 *271:X 0.00035558
4 *23:10 0.000558864
5 *269:A *267:A 0.00022887
6 *269:A *38:23 9.54004e-05
7 *269:A *42:106 0.000402741
8 *270:A *256:D 4.79864e-05
9 *23:10 *256:D 4.27842e-06
10 *23:10 *264:A 8.25843e-06
11 *23:10 *285:A 7.62712e-05
12 *23:10 *37:10 1.8995e-05
13 otrip_decoded[9] *23:10 0
14 *271:A *23:10 0.000111674
*RES
1 *271:X *23:10 18.925 
2 *23:10 *269:A 17.6214 
3 *23:10 *270:A 16.4071 
*END

*D_NET *24 0.000857694
*CONN
*I *275:A I *D sky130_fd_sc_hd__buf_2
*I *261:X O *D sky130_fd_sc_hd__and4b_1
*CAP
1 *275:A 0.000314521
2 *261:X 0.000314521
3 *275:A *283:A 0.000153047
4 otrip_decoded[14] *275:A 6.27457e-05
5 otrip_decoded[7] *275:A 1.28585e-05
*RES
1 *261:X *275:A 34.4036 
*END

*D_NET *25 0.000577347
*CONN
*I *276:A I *D sky130_fd_sc_hd__buf_2
*I *262:X O *D sky130_fd_sc_hd__and4_1
*CAP
1 *276:A 0.000121176
2 *262:X 0.000121176
3 *276:A *254:A_N 0.000153047
4 *276:A *258:B 1.02504e-05
5 *276:A *290:A 2.89016e-05
6 *276:A *41:25 0.000142797
*RES
1 *262:X *276:A 30.9214 
*END

*D_NET *26 0.000232062
*CONN
*I *277:A I *D sky130_fd_sc_hd__buf_2
*I *248:Y O *D sky130_fd_sc_hd__nor4b_1
*CAP
1 *277:A 9.68485e-05
2 *248:Y 9.68485e-05
3 *277:A *280:A 0
4 *277:A *38:29 3.83655e-05
*RES
1 *248:Y *277:A 29.5464 
*END

*D_NET *27 0.000278152
*CONN
*I *278:A I *D sky130_fd_sc_hd__buf_2
*I *249:Y O *D sky130_fd_sc_hd__nor4b_1
*CAP
1 *278:A 8.09929e-05
2 *249:Y 8.09929e-05
3 *278:A *251:D_N 3.83655e-05
4 *278:A *280:A 0
5 *278:A *38:35 7.78006e-05
*RES
1 *249:Y *278:A 29.5464 
*END

*D_NET *28 0.000902262
*CONN
*I *279:A I *D sky130_fd_sc_hd__buf_2
*I *250:X O *D sky130_fd_sc_hd__and4bb_1
*CAP
1 *279:A 0.000382288
2 *250:X 0.000382288
3 *279:A *253:D 9.60939e-05
4 *279:A *40:46 0
5 otrip_decoded[3] *279:A 4.15914e-05
*RES
1 *250:X *279:A 32.6536 
*END

*D_NET *29 0.000327943
*CONN
*I *280:A I *D sky130_fd_sc_hd__buf_2
*I *251:Y O *D sky130_fd_sc_hd__nor4b_1
*CAP
1 *280:A 0.000153753
2 *251:Y 0.000153753
3 *280:A *248:A 4.45982e-06
4 *280:A *251:B 3.67279e-06
5 *280:A *251:D_N 0
6 *280:A *36:36 1.23044e-05
7 *280:A *38:29 0
8 *277:A *280:A 0
9 *278:A *280:A 0
*RES
1 *251:Y *280:A 30.1536 
*END

*D_NET *30 0.000224132
*CONN
*I *281:A I *D sky130_fd_sc_hd__buf_2
*I *252:X O *D sky130_fd_sc_hd__and4bb_1
*CAP
1 *281:A 0.000112066
2 *252:X 0.000112066
3 *281:A *257:D 0
*RES
1 *252:X *281:A 29.5464 
*END

*D_NET *31 0.000551534
*CONN
*I *282:A I *D sky130_fd_sc_hd__buf_2
*I *253:X O *D sky130_fd_sc_hd__and4bb_1
*CAP
1 *282:A 0.000269297
2 *253:X 0.000269297
3 *282:A *289:A 9.25014e-06
4 otrip_decoded[6] *282:A 3.69047e-06
*RES
1 *253:X *282:A 31.4393 
*END

*D_NET *32 0.000973071
*CONN
*I *283:A I *D sky130_fd_sc_hd__buf_2
*I *254:X O *D sky130_fd_sc_hd__and4b_1
*CAP
1 *283:A 0.000238791
2 *254:X 0.000238791
3 *283:A *254:B 1.92789e-05
4 *283:A *255:A 0.000245872
5 *283:A *43:50 7.72916e-05
6 *275:A *283:A 0.000153047
*RES
1 *254:X *283:A 33.0464 
*END

*D_NET *33 0.000267125
*CONN
*I *284:A I *D sky130_fd_sc_hd__buf_2
*I *255:Y O *D sky130_fd_sc_hd__nor4b_1
*CAP
1 *284:A 0.000100554
2 *255:Y 0.000100554
3 *284:A *255:C 4.15914e-05
4 *284:A *261:A_N 1.04232e-05
5 *284:A *261:C 1.40034e-05
6 *284:A *261:D 0
*RES
1 *255:Y *284:A 29.6714 
*END

*D_NET *34 0.00493304
*CONN
*I *268:A I *D sky130_fd_sc_hd__buf_1
*I *267:A I *D sky130_fd_sc_hd__clkbuf_2
*I *272:X O *D sky130_fd_sc_hd__clkbuf_1
*CAP
1 *268:A 0.000835535
2 *267:A 0.000118284
3 *272:X 0.000149427
4 *34:8 0.00110325
5 *267:A *256:B_N 0.000141729
6 *267:A *38:23 0.000701356
7 *267:A *42:106 0.000177597
8 *268:A *262:A 0.000178503
9 *268:A *262:D 5.33005e-05
10 *268:A *37:23 0.0011778
11 *268:A *41:6 5.52644e-05
12 *268:A *41:10 1.21258e-05
13 *34:8 *37:10 0
14 *269:A *267:A 0.00022887
*RES
1 *272:X *34:8 15.7464 
2 *34:8 *267:A 20.4964 
3 *34:8 *268:A 32.9964 
*END

*D_NET *35 0.000729031
*CONN
*I *285:A I *D sky130_fd_sc_hd__buf_2
*I *256:X O *D sky130_fd_sc_hd__and4bb_1
*CAP
1 *285:A 0.000237118
2 *256:X 0.000237118
3 *285:A *264:A 8.90031e-05
4 *285:A *37:10 3.62193e-05
5 *285:A *40:100 5.33005e-05
6 *23:10 *285:A 7.62712e-05
*RES
1 *256:X *285:A 31.5643 
*END

*D_NET *36 0.0131893
*CONN
*I *247:A I *D sky130_fd_sc_hd__nor4_1
*I *254:A_N I *D sky130_fd_sc_hd__and4b_1
*I *248:A I *D sky130_fd_sc_hd__nor4b_1
*I *249:A I *D sky130_fd_sc_hd__nor4b_1
*I *250:A_N I *D sky130_fd_sc_hd__and4bb_1
*I *259:D I *D sky130_fd_sc_hd__and4bb_1
*I *252:A_N I *D sky130_fd_sc_hd__and4bb_1
*I *257:D I *D sky130_fd_sc_hd__and4bb_1
*I *253:A_N I *D sky130_fd_sc_hd__and4bb_1
*I *251:A I *D sky130_fd_sc_hd__nor4b_1
*I *263:X O *D sky130_fd_sc_hd__clkbuf_2
*CAP
1 *247:A 0
2 *254:A_N 0.000500489
3 *248:A 5.07077e-06
4 *249:A 0.000103228
5 *250:A_N 0
6 *259:D 0
7 *252:A_N 0
8 *257:D 0.000110466
9 *253:A_N 0.000123655
10 *251:A 0
11 *263:X 0.000110296
12 *36:82 0.000254423
13 *36:74 0.00038913
14 *36:57 0.000532185
15 *36:53 0.000353141
16 *36:49 0.000772218
17 *36:36 0.000741682
18 *36:26 0.00249467
19 *36:16 0.00280514
20 *36:10 0.000187824
21 *248:A *38:29 1.16198e-05
22 *249:A *249:B 5.66943e-05
23 *249:A *40:25 0.000291601
24 *249:A *42:38 0.000258671
25 *253:A_N *253:B_N 3.42426e-05
26 *254:A_N *258:B 9.09596e-05
27 *254:A_N *258:D 2.37274e-05
28 *254:A_N *290:A 0.000125567
29 *254:A_N *41:36 8.32078e-05
30 *254:A_N *43:30 0
31 *254:A_N *44:10 0
32 *257:D *252:D 5.49489e-05
33 *257:D *257:C 0.000149966
34 *36:10 *44:10 5.58233e-05
35 *36:16 *247:B 5.49995e-05
36 *36:16 *247:C 3.11088e-05
37 *36:16 *38:6 7.62237e-05
38 *36:26 *247:C 0.000183977
39 *36:26 *38:8 0.000165629
40 *36:36 *251:B 1.00887e-05
41 *36:36 *251:D_N 5.66943e-05
42 *36:36 *38:29 2.04684e-05
43 *36:36 *40:8 0.000169577
44 *36:36 *40:14 0.000141941
45 *36:49 *251:B 8.19254e-05
46 *36:49 *251:D_N 2.45012e-05
47 *36:49 *38:52 3.0699e-05
48 *36:53 *38:52 8.25843e-06
49 *36:53 *40:31 6.7085e-05
50 *36:57 *259:B_N 0
51 *36:57 *38:71 0.000198691
52 *36:74 *252:C 5.60962e-05
53 *36:74 *252:D 4.18657e-05
54 *36:74 *257:B_N 9.25014e-06
55 *36:74 *259:A_N 2.77258e-05
56 *36:74 *259:B_N 0
57 *36:74 *38:71 0.000286594
58 *36:74 *38:75 9.55813e-05
59 *36:82 *252:D 0.000171464
60 *36:82 *42:60 3.71887e-05
61 otrip_decoded[0] *36:26 0.000162832
62 otrip_decoded[11] *254:A_N 1.46017e-05
63 otrip_decoded[11] *36:26 3.46362e-05
64 otrip_decoded[15] *254:A_N 3.91668e-05
65 *276:A *254:A_N 0.000153047
66 *280:A *248:A 4.45982e-06
67 *280:A *36:36 1.23044e-05
68 *281:A *257:D 0
*RES
1 *263:X *36:10 20.2464 
2 *36:10 *36:16 6.39286 
3 *36:16 *36:26 11.2828 
4 *36:26 *36:36 13.3125 
5 *36:36 *251:A 13.8 
6 *36:36 *36:49 11.875 
7 *36:49 *36:53 2.60714 
8 *36:53 *36:57 7.96429 
9 *36:57 *253:A_N 15.5679 
10 *36:57 *36:74 10.4643 
11 *36:74 *36:82 11.8036 
12 *36:82 *257:D 20.7821 
13 *36:82 *252:A_N 9.3 
14 *36:74 *259:D 9.3 
15 *36:53 *250:A_N 9.3 
16 *36:49 *249:A 22.3714 
17 *36:26 *248:A 14.0768 
18 *36:16 *254:A_N 23.6393 
19 *36:10 *247:A 9.3 
*END

*D_NET *37 0.0069585
*CONN
*I *262:A I *D sky130_fd_sc_hd__and4_1
*I *255:D_N I *D sky130_fd_sc_hd__nor4b_1
*I *261:D I *D sky130_fd_sc_hd__and4b_1
*I *260:C I *D sky130_fd_sc_hd__and4b_1
*I *258:D I *D sky130_fd_sc_hd__and4b_1
*I *256:C I *D sky130_fd_sc_hd__and4bb_1
*I *264:X O *D sky130_fd_sc_hd__buf_1
*CAP
1 *262:A 9.69112e-05
2 *255:D_N 8.0232e-05
3 *261:D 9.94079e-05
4 *260:C 0
5 *258:D 9.20258e-05
6 *256:C 0
7 *264:X 0.000169429
8 *37:47 0.000376664
9 *37:38 0.000263952
10 *37:25 0.000158954
11 *37:23 0.00106694
12 *37:10 0.00113946
13 *255:D_N *255:A 6.65398e-05
14 *255:D_N *255:B 0.000119618
15 *258:D *258:B 0.00015677
16 *258:D *39:12 0.000101771
17 *258:D *43:19 3.75898e-05
18 *258:D *43:30 4.10319e-05
19 *261:D *261:A_N 2.14658e-05
20 *261:D *261:B 1.24368e-05
21 *261:D *261:C 3.27545e-05
22 *37:10 *256:D 1.00887e-05
23 *37:10 *264:A 5.71472e-05
24 *37:23 *256:D 8.956e-05
25 *37:38 *258:B 9.10297e-05
26 *37:38 *39:12 5.2732e-05
27 *37:38 *39:23 0.000114264
28 *37:38 *41:25 7.83659e-05
29 *37:47 *255:A 5.66044e-05
30 *37:47 *255:B 5.83304e-05
31 *37:47 *39:23 5.7616e-05
32 *37:47 *39:34 0.000209341
33 *37:47 *41:25 7.05447e-05
34 *37:47 *41:36 0.000245207
35 *37:47 *41:47 0.000143188
36 *37:47 *43:50 5.52889e-05
37 *254:A_N *258:D 2.37274e-05
38 *268:A *262:A 0.000178503
39 *268:A *37:23 0.0011778
40 *284:A *261:D 0
41 *285:A *37:10 3.62193e-05
42 *23:10 *37:10 1.8995e-05
43 *34:8 *37:10 0
*RES
1 *264:X *37:10 16.5857 
2 *37:10 *256:C 13.8 
3 *37:10 *37:23 23.0714 
4 *37:23 *37:25 4.5 
5 *37:25 *258:D 16.6973 
6 *37:25 *37:38 2.25 
7 *37:38 *260:C 13.8 
8 *37:38 *37:47 6.5 
9 *37:47 *261:D 15.8402 
10 *37:47 *255:D_N 15.9786 
11 *37:23 *262:A 11.0679 
*END

*D_NET *38 0.0126779
*CONN
*I *247:D I *D sky130_fd_sc_hd__nor4_1
*I *248:C I *D sky130_fd_sc_hd__nor4b_1
*I *251:D_N I *D sky130_fd_sc_hd__nor4b_1
*I *250:B_N I *D sky130_fd_sc_hd__and4bb_1
*I *257:B_N I *D sky130_fd_sc_hd__and4bb_1
*I *259:C I *D sky130_fd_sc_hd__and4bb_1
*I *252:C I *D sky130_fd_sc_hd__and4bb_1
*I *253:D I *D sky130_fd_sc_hd__and4bb_1
*I *249:C I *D sky130_fd_sc_hd__nor4b_1
*I *256:B_N I *D sky130_fd_sc_hd__and4bb_1
*I *265:X O *D sky130_fd_sc_hd__clkbuf_2
*CAP
1 *247:D 0
2 *248:C 0
3 *251:D_N 6.93091e-05
4 *250:B_N 0
5 *257:B_N 0.000240569
6 *259:C 0
7 *252:C 0.000309634
8 *253:D 0.000159393
9 *249:C 2.77793e-05
10 *256:B_N 3.02199e-05
11 *265:X 4.20172e-05
12 *38:75 0.000376345
13 *38:71 0.00045037
14 *38:54 0.000316037
15 *38:52 0.000392814
16 *38:35 0.000594847
17 *38:29 0.00071
18 *38:23 0.000718667
19 *38:8 0.000469621
20 *38:6 0.000215636
21 *249:C *40:14 2.85234e-05
22 *252:C *252:B_N 5.52302e-05
23 *252:C *252:D 2.50909e-05
24 *252:C *289:A 0.000141192
25 *253:D *250:D 0.000187042
26 *253:D *40:31 0.000187465
27 *253:D *40:37 0.000285099
28 *253:D *42:38 4.18895e-05
29 *256:B_N *42:106 0.000184297
30 *257:B_N *257:A_N 0.000154849
31 *257:B_N *257:C 0
32 *257:B_N *42:60 9.4724e-05
33 *38:6 *247:B 1.4796e-05
34 *38:6 *247:C 8.10737e-06
35 *38:6 *42:106 0.000228876
36 *38:8 *247:C 0.000346774
37 *38:8 *286:A 2.85234e-05
38 *38:8 *42:106 0.00101082
39 *38:23 *247:C 0.000184297
40 *38:23 *40:6 0.0001871
41 *38:23 *40:100 0.000659768
42 *38:23 *42:8 3.11088e-05
43 *38:23 *42:106 1.12713e-05
44 *38:52 *249:B 2.71964e-05
45 *38:52 *40:31 0.000172309
46 *38:52 *42:38 0.000432444
47 *38:54 *40:31 4.18895e-05
48 *38:54 *42:38 5.33005e-05
49 *38:71 *42:49 0.000101545
50 *38:71 *42:60 0.000368104
51 otrip_decoded[2] *38:35 1.57931e-05
52 otrip_decoded[3] *253:D 0
53 otrip_decoded[4] *38:29 1.57931e-05
54 *248:A *38:29 1.16198e-05
55 *267:A *256:B_N 0.000141729
56 *267:A *38:23 0.000701356
57 *269:A *38:23 9.54004e-05
58 *277:A *38:29 3.83655e-05
59 *278:A *251:D_N 3.83655e-05
60 *278:A *38:35 7.78006e-05
61 *279:A *253:D 9.60939e-05
62 *280:A *251:D_N 0
63 *280:A *38:29 0
64 *36:16 *38:6 7.62237e-05
65 *36:26 *38:8 0.000165629
66 *36:36 *251:D_N 5.66943e-05
67 *36:36 *38:29 2.04684e-05
68 *36:49 *251:D_N 2.45012e-05
69 *36:49 *38:52 3.0699e-05
70 *36:53 *38:52 8.25843e-06
71 *36:57 *38:71 0.000198691
72 *36:74 *252:C 5.60962e-05
73 *36:74 *257:B_N 9.25014e-06
74 *36:74 *38:71 0.000286594
75 *36:74 *38:75 9.55813e-05
*RES
1 *265:X *38:6 11.4786 
2 *38:6 *38:8 9.57143 
3 *38:8 *256:B_N 11.0679 
4 *38:8 *38:23 16.1607 
5 *38:23 *38:29 10.375 
6 *38:29 *38:35 7.5 
7 *38:35 *249:C 14.3357 
8 *38:35 *38:52 13.625 
9 *38:52 *38:54 0.535714 
10 *38:54 *253:D 23.4607 
11 *38:54 *38:71 10.6964 
12 *38:71 *38:75 5.44643 
13 *38:75 *252:C 13.5321 
14 *38:75 *259:C 9.3 
15 *38:71 *257:B_N 18.6393 
16 *38:52 *250:B_N 9.3 
17 *38:29 *251:D_N 20.2464 
18 *38:23 *248:C 13.8 
19 *38:6 *247:D 9.3 
*END

*D_NET *39 0.00356938
*CONN
*I *258:A_N I *D sky130_fd_sc_hd__and4b_1
*I *254:D I *D sky130_fd_sc_hd__and4b_1
*I *255:C I *D sky130_fd_sc_hd__nor4b_1
*I *261:C I *D sky130_fd_sc_hd__and4b_1
*I *260:B I *D sky130_fd_sc_hd__and4b_1
*I *262:D I *D sky130_fd_sc_hd__and4_1
*I *266:X O *D sky130_fd_sc_hd__buf_1
*CAP
1 *258:A_N 3.64069e-05
2 *254:D 3.24452e-05
3 *255:C 7.2092e-05
4 *261:C 6.15673e-05
5 *260:B 0
6 *262:D 2.04425e-05
7 *266:X 4.09104e-05
8 *39:42 0.000354222
9 *39:34 0.00032308
10 *39:23 0.000130449
11 *39:12 0.000260529
12 *39:6 0.000257026
13 *254:D *254:B 5.1968e-05
14 *254:D *254:C 6.05161e-06
15 *255:C *255:B 0.000169405
16 *255:C *41:47 1.02504e-05
17 *261:C *261:A_N 0.000147381
18 *261:C *261:B 5.33005e-05
19 *262:D *41:10 2.59355e-05
20 *39:6 *266:A 1.0484e-05
21 *39:12 *258:B 7.25873e-06
22 *39:12 *266:A 1.29901e-05
23 *39:12 *43:30 0.000147331
24 *39:23 *43:30 8.6229e-06
25 *39:23 *43:39 0.000137443
26 *39:23 *43:50 2.41865e-05
27 *39:34 *43:50 0.000219592
28 *39:42 *254:B 5.33005e-05
29 *39:42 *254:C 4.58194e-05
30 *39:42 *41:36 3.51442e-05
31 *39:42 *41:47 0.000136375
32 *258:D *39:12 0.000101771
33 *261:D *261:C 3.27545e-05
34 *268:A *262:D 5.33005e-05
35 *284:A *255:C 4.15914e-05
36 *284:A *261:C 1.40034e-05
37 *37:38 *39:12 5.2732e-05
38 *37:38 *39:23 0.000114264
39 *37:47 *39:23 5.7616e-05
40 *37:47 *39:34 0.000209341
*RES
1 *266:X *39:6 9.83571 
2 *39:6 *39:12 7.80357 
3 *39:12 *262:D 14.3357 
4 *39:12 *39:23 2.25 
5 *39:23 *260:B 13.8 
6 *39:23 *39:34 7.35714 
7 *39:34 *39:42 8.53571 
8 *39:42 *261:C 15.5857 
9 *39:42 *255:C 16.05 
10 *39:34 *254:D 9.94732 
11 *39:6 *258:A_N 10.0321 
*END

*D_NET *40 0.00961298
*CONN
*I *247:C I *D sky130_fd_sc_hd__nor4_1
*I *256:A_N I *D sky130_fd_sc_hd__and4bb_1
*I *248:B I *D sky130_fd_sc_hd__nor4b_1
*I *251:C I *D sky130_fd_sc_hd__nor4b_1
*I *259:B_N I *D sky130_fd_sc_hd__and4bb_1
*I *250:C I *D sky130_fd_sc_hd__and4bb_1
*I *257:C I *D sky130_fd_sc_hd__and4bb_1
*I *252:B_N I *D sky130_fd_sc_hd__and4bb_1
*I *253:C I *D sky130_fd_sc_hd__and4bb_1
*I *249:D_N I *D sky130_fd_sc_hd__nor4b_1
*I *267:X O *D sky130_fd_sc_hd__clkbuf_2
*CAP
1 *247:C 0.000655492
2 *256:A_N 0
3 *248:B 1.97694e-05
4 *251:C 2.72499e-05
5 *259:B_N 0.000479097
6 *250:C 0
7 *257:C 0.000183629
8 *252:B_N 1.42796e-05
9 *253:C 0
10 *249:D_N 2.73051e-05
11 *267:X 0
12 *40:100 0.000941609
13 *40:46 0.000495524
14 *40:37 0.000448158
15 *40:31 0.000279433
16 *40:25 0.000789092
17 *40:14 0.000452691
18 *40:8 0.000341824
19 *40:6 0.000257607
20 *40:4 0.000453662
21 *247:C *286:A 3.61573e-05
22 *251:C *248:D_N 3.49456e-06
23 *251:C *42:19 2.6961e-05
24 *252:B_N *289:A 5.33005e-05
25 *257:C *257:A_N 0
26 *257:C *289:A 0
27 *259:B_N *259:A_N 5.30637e-06
28 *259:B_N *42:38 3.88338e-05
29 *40:6 *42:8 6.07474e-05
30 *40:8 *42:8 3.32737e-05
31 *40:8 *42:19 2.80345e-05
32 *40:14 *42:19 1.01342e-05
33 *40:14 *42:23 0.000179184
34 *40:25 *42:38 2.60107e-05
35 *40:46 *289:A 0
36 *249:A *40:25 0.000291601
37 *249:C *40:14 2.85234e-05
38 *252:C *252:B_N 5.52302e-05
39 *253:D *40:31 0.000187465
40 *253:D *40:37 0.000285099
41 *257:B_N *257:C 0
42 *257:D *257:C 0.000149966
43 *279:A *40:46 0
44 *285:A *40:100 5.33005e-05
45 *36:16 *247:C 3.11088e-05
46 *36:26 *247:C 0.000183977
47 *36:36 *40:8 0.000169577
48 *36:36 *40:14 0.000141941
49 *36:53 *40:31 6.7085e-05
50 *36:57 *259:B_N 0
51 *36:74 *259:B_N 0
52 *38:6 *247:C 8.10737e-06
53 *38:8 *247:C 0.000346774
54 *38:23 *247:C 0.000184297
55 *38:23 *40:6 0.0001871
56 *38:23 *40:100 0.000659768
57 *38:52 *40:31 0.000172309
58 *38:54 *40:31 4.18895e-05
*RES
1 *267:X *40:4 9.3 
2 *40:4 *40:6 3.41071 
3 *40:6 *40:8 2.17857 
4 *40:8 *40:14 5.80357 
5 *40:14 *249:D_N 10.0321 
6 *40:14 *40:25 8.875 
7 *40:25 *40:31 8.75 
8 *40:31 *40:37 7.91071 
9 *40:37 *253:C 13.8 
10 *40:37 *40:46 5.28571 
11 *40:46 *252:B_N 14.3357 
12 *40:46 *257:C 17.1929 
13 *40:31 *250:C 9.3 
14 *40:25 *259:B_N 21.8536 
15 *40:8 *251:C 10.4964 
16 *40:6 *248:B 9.72857 
17 *40:4 *40:100 6.28571 
18 *40:100 *256:A_N 9.3 
19 *40:100 *247:C 21.8893 
*END

*D_NET *41 0.00372737
*CONN
*I *262:C I *D sky130_fd_sc_hd__and4_1
*I *255:B I *D sky130_fd_sc_hd__nor4b_1
*I *261:B I *D sky130_fd_sc_hd__and4b_1
*I *254:C I *D sky130_fd_sc_hd__and4b_1
*I *260:A_N I *D sky130_fd_sc_hd__and4b_1
*I *258:B I *D sky130_fd_sc_hd__and4b_1
*I *268:X O *D sky130_fd_sc_hd__buf_1
*CAP
1 *262:C 0
2 *255:B 4.44266e-05
3 *261:B 2.72727e-05
4 *254:C 8.42808e-05
5 *260:A_N 0.000143045
6 *258:B 0.000152171
7 *268:X 0.00014432
8 *41:47 0.00013159
9 *41:36 0.000238119
10 *41:25 0.000281387
11 *41:10 0.000281345
12 *41:6 0.000229098
13 *258:B *288:A 1.87331e-05
14 *258:B *43:30 1.62025e-05
15 *260:A_N *260:D 6.57032e-05
16 *41:36 *290:A 1.00375e-05
17 *254:A_N *258:B 9.09596e-05
18 *254:A_N *41:36 8.32078e-05
19 *254:D *254:C 6.05161e-06
20 *255:C *255:B 0.000169405
21 *255:C *41:47 1.02504e-05
22 *255:D_N *255:B 0.000119618
23 *258:D *258:B 0.00015677
24 *261:C *261:B 5.33005e-05
25 *261:D *261:B 1.24368e-05
26 *262:D *41:10 2.59355e-05
27 *268:A *41:6 5.52644e-05
28 *268:A *41:10 1.21258e-05
29 *276:A *258:B 1.02504e-05
30 *276:A *41:25 0.000142797
31 *37:38 *258:B 9.10297e-05
32 *37:38 *41:25 7.83659e-05
33 *37:47 *255:B 5.83304e-05
34 *37:47 *41:25 7.05447e-05
35 *37:47 *41:36 0.000245207
36 *37:47 *41:47 0.000143188
37 *39:12 *258:B 7.25873e-06
38 *39:42 *254:C 4.58194e-05
39 *39:42 *41:36 3.51442e-05
40 *39:42 *41:47 0.000136375
*RES
1 *268:X *41:6 11.0679 
2 *41:6 *41:10 5.44643 
3 *41:10 *258:B 18.0321 
4 *41:10 *41:25 1.94643 
5 *41:25 *260:A_N 15.9786 
6 *41:25 *41:36 3.16071 
7 *41:36 *254:C 14.7464 
8 *41:36 *41:47 1.94643 
9 *41:47 *261:B 14.3357 
10 *41:47 *255:B 16.05 
11 *41:6 *262:C 9.3 
*END

*D_NET *42 0.0140884
*CONN
*I *254:B I *D sky130_fd_sc_hd__and4b_1
*I *247:B I *D sky130_fd_sc_hd__nor4_1
*I *251:B I *D sky130_fd_sc_hd__nor4b_1
*I *257:A_N I *D sky130_fd_sc_hd__and4bb_1
*I *259:A_N I *D sky130_fd_sc_hd__and4bb_1
*I *252:D I *D sky130_fd_sc_hd__and4bb_1
*I *253:B_N I *D sky130_fd_sc_hd__and4bb_1
*I *250:D I *D sky130_fd_sc_hd__and4bb_1
*I *249:B I *D sky130_fd_sc_hd__nor4b_1
*I *248:D_N I *D sky130_fd_sc_hd__nor4b_1
*I *269:X O *D sky130_fd_sc_hd__clkbuf_2
*CAP
1 *254:B 0.000575736
2 *247:B 0.000159538
3 *251:B 3.50862e-05
4 *257:A_N 9.62864e-05
5 *259:A_N 0.000111868
6 *252:D 0.000196358
7 *253:B_N 5.46119e-05
8 *250:D 0.000119987
9 *249:B 2.12337e-05