** sch_path: /home/rtsang/chipalooza/sky130_ajc_ip__overvoltage/xschem/tb_overvoltage.sch
**.subckt tb_overvoltage
Vavss avss GND 0
Vena ena GND pwl (0 dvdd 500u dvdd 500.01u dvdd 600u dvdd 600.01u dvdd)
Vavdd avdd GND pwl (0 0 20u 0 400u 3.5 700u 3.2 900u 3.0 1000u 3.3 1200u 3.5)
.save i(vavdd)
Vbg vbg_1v2 GND 1.2
Ibias vbp avss 200n
XM1 ibg_200n vbp avdd avdd sky130_fd_pr__pfet_g5v0d10v5 L=4 W=1 nf=1 ad='int((nf+1)/2) * W/nf * 0.29' as='int((nf+2)/2) * W/nf * 0.29'
+ pd='2*int((nf+1)/2) * (W/nf + 0.29)' ps='2*int((nf+2)/2) * (W/nf + 0.29)' nrd='0.29 / W' nrs='0.29 / W' sa=0 sb=0 sd=0 mult=1 m=1
XM0 vbp vbp avdd avdd sky130_fd_pr__pfet_g5v0d10v5 L=4 W=1 nf=1 ad='int((nf+1)/2) * W/nf * 0.29' as='int((nf+2)/2) * W/nf * 0.29' pd='2*int((nf+1)/2) * (W/nf + 0.29)'
+ ps='2*int((nf+2)/2) * (W/nf + 0.29)' nrd='0.29 / W' nrs='0.29 / W' sa=0 sb=0 sd=0 mult=1 m=1
Vdvss dvss GND 0
Vdvdd dvdd GND dvdd
.save i(vdvdd)
R1 itest GND 1e6 m=1
C1 ovout GND 20p m=1
xIovr avdd avss dvdd dvss vbg_1v2 ovout itest otrip_3_ otrip_2_ otrip_1_ otrip_0_ vin ena isrc_sel ibg_200n overvoltage
Vvotrip0 otrip_0_ GND DC 0
.save i(vvotrip0)
Vvotrip1 otrip_1_ GND DC 0
.save i(vvotrip1)
Vvotrip2 otrip_2_ GND DC 0
.save i(vvotrip2)
Vvotrip3 otrip_3_ GND DC 0
.save i(vvotrip3)
**** begin user architecture code


.param avdd=3.3
.param dvdd=1.8

.lib libs.tech/ngspice/sky130.lib.spice tt
.include libs.ref/sky130_fd_sc_hvl/spice/sky130_fd_sc_hvl.spice
.include libs.ref/sky130_fd_sc_hd/spice/sky130_fd_sc_hd.spice

*dig pull up/down to set test bits
R000 ena dvdd 1e9
R001 isrc_sel dvss 1e9

.temp 25
.save all
.save @m.xiovr.xiana.xirsmux.xmena.msky130_fd_pr__nfet_g5v0d10v5[id]

.control
tran 10u 1400u
plot ovout itest avdd ena vbg_1v2 vin xiovr.xiana.dcomp xiovr.xiana.dcomp_filt
plot i(Vavdd) i(Vdvdd)
plot @m.xiovr.xiana.xirsmux.xmena.msky130_fd_pr__nfet_g5v0d10v5[id]
plot ovout avdd ena*0.5
.endc


**** end user architecture code
**.ends

* expanding   symbol:  xschem/overvoltage.sym # of pins=12
** sym_path: /home/rtsang/chipalooza/sky130_ajc_ip__overvoltage/xschem/overvoltage.sym
** sch_path: /home/rtsang/chipalooza/sky130_ajc_ip__overvoltage/xschem/overvoltage.sch
.subckt overvoltage avdd avss dvdd dvss vbg_1v2 ovout itest otrip_3_ otrip_2_ otrip_1_ otrip_0_ vin ena isrc_sel ibg_200n
*.ipin avdd
*.ipin avss
*.ipin dvdd
*.ipin dvss
*.ipin vbg_1v2
*.ipin otrip_3_,otrip_2_,otrip_1_,otrip_0_
*.ipin ena
*.ipin isrc_sel
*.ipin ibg_200n
*.opin vin
*.opin ovout
*.opin itest
xIana otrip_decoded_15_ otrip_decoded_14_ otrip_decoded_13_ otrip_decoded_12_ otrip_decoded_11_ otrip_decoded_10_ otrip_decoded_9_
+ otrip_decoded_8_ otrip_decoded_7_ otrip_decoded_6_ otrip_decoded_5_ otrip_decoded_4_ otrip_decoded_3_ otrip_decoded_2_ otrip_decoded_1_
+ otrip_decoded_0_ vin vbg_1v2 ena avdd itest avss ibg_200n dvdd isrc_sel dvss ovout overvoltage_ana
**** begin user architecture code



*XSPICE CO-SIM netlist
.include overvoltage_dig.out.spice
xiovervoltage_dig dvss dvdd
+otrip_0_ otrip_1_ otrip_2_ otrip_3_
+otrip_decoded_0_
+otrip_decoded_10_ otrip_decoded_11_ otrip_decoded_12_ otrip_decoded_13_ otrip_decoded_14_ otrip_decoded_15_
+otrip_decoded_1_ otrip_decoded_2_ otrip_decoded_3_ otrip_decoded_4_ otrip_decoded_5_ otrip_decoded_6_ otrip_decoded_7_
+otrip_decoded_8_ otrip_decoded_9_
+overvoltage_dig


**** end user architecture code
.ends


* expanding   symbol:  xschem/overvoltage_ana.sym # of pins=12
** sym_path: /home/rtsang/chipalooza/sky130_ajc_ip__overvoltage/xschem/overvoltage_ana.sym
** sch_path: /home/rtsang/chipalooza/sky130_ajc_ip__overvoltage/xschem/overvoltage_ana.sch
.subckt overvoltage_ana otrip_decoded_15_ otrip_decoded_14_ otrip_decoded_13_ otrip_decoded_12_ otrip_decoded_11_
+ otrip_decoded_10_ otrip_decoded_9_ otrip_decoded_8_ otrip_decoded_7_ otrip_decoded_6_ otrip_decoded_5_ otrip_decoded_4_ otrip_decoded_3_
+ otrip_decoded_2_ otrip_decoded_1_ otrip_decoded_0_ vin vbg_1v2 ena avdd itest avss ibg_200n dvdd isrc_sel dvss ovout
*.ipin vbg_1v2
*.ipin avdd
*.ipin avss
*.ipin dvdd
*.ipin dvss
*.ipin ena
*.ipin isrc_sel
*.ipin ibg_200n
*.opin ovout
*.opin itest
*.ipin
*+ otrip_decoded_15_,otrip_decoded_14_,otrip_decoded_13_,otrip_decoded_12_,otrip_decoded_11_,otrip_decoded_10_,otrip_decoded_9_,otrip_decoded_8_,otrip_decoded_7_,otrip_decoded_6_,otrip_decoded_5_,otrip_decoded_4_,otrip_decoded_3_,otrip_decoded_2_,otrip_decoded_1_,otrip_decoded_0_
*.opin vin
XR1 dcomp_filt dcomp avss sky130_fd_pr__res_xhigh_po W=2 L=500 mult=1 m=1
xIlvls4 dcomp_filt dvdd avss avss avdd avdd net2 sky130_fd_sc_hvl__lsbufhv2lv_1
XC1 dcomp_filt avss sky130_fd_pr__cap_mim_m3_1 W=20 L=20 MF=3 m=3
XC2 dcomp_filt avss sky130_fd_pr__cap_mim_m3_2 W=20 L=20 MF=3 m=3
xIlvls0_15_ otrip_decoded_15_ dvdd avss avss avdd avdd otrip_decoded_avdd_15_ sky130_fd_sc_hvl__lsbuflv2hv_1
xIlvls0_14_ otrip_decoded_14_ dvdd avss avss avdd avdd otrip_decoded_avdd_14_ sky130_fd_sc_hvl__lsbuflv2hv_1
xIlvls0_13_ otrip_decoded_13_ dvdd avss avss avdd avdd otrip_decoded_avdd_13_ sky130_fd_sc_hvl__lsbuflv2hv_1
xIlvls0_12_ otrip_decoded_12_ dvdd avss avss avdd avdd otrip_decoded_avdd_12_ sky130_fd_sc_hvl__lsbuflv2hv_1
xIlvls0_11_ otrip_decoded_11_ dvdd avss avss avdd avdd otrip_decoded_avdd_11_ sky130_fd_sc_hvl__lsbuflv2hv_1
xIlvls0_10_ otrip_decoded_10_ dvdd avss avss avdd avdd otrip_decoded_avdd_10_ sky130_fd_sc_hvl__lsbuflv2hv_1
xIlvls0_9_ otrip_decoded_9_ dvdd avss avss avdd avdd otrip_decoded_avdd_9_ sky130_fd_sc_hvl__lsbuflv2hv_1
xIlvls0_8_ otrip_decoded_8_ dvdd avss avss avdd avdd otrip_decoded_avdd_8_ sky130_fd_sc_hvl__lsbuflv2hv_1
xIlvls0_7_ otrip_decoded_7_ dvdd avss avss avdd avdd otrip_decoded_avdd_7_ sky130_fd_sc_hvl__lsbuflv2hv_1
xIlvls0_6_ otrip_decoded_6_ dvdd avss avss avdd avdd otrip_decoded_avdd_6_ sky130_fd_sc_hvl__lsbuflv2hv_1
xIlvls0_5_ otrip_decoded_5_ dvdd avss avss avdd avdd otrip_decoded_avdd_5_ sky130_fd_sc_hvl__lsbuflv2hv_1
xIlvls0_4_ otrip_decoded_4_ dvdd avss avss avdd avdd otrip_decoded_avdd_4_ sky130_fd_sc_hvl__lsbuflv2hv_1
xIlvls0_3_ otrip_decoded_3_ dvdd avss avss avdd avdd otrip_decoded_avdd_3_ sky130_fd_sc_hvl__lsbuflv2hv_1
xIlvls0_2_ otrip_decoded_2_ dvdd avss avss avdd avdd otrip_decoded_avdd_2_ sky130_fd_sc_hvl__lsbuflv2hv_1
xIlvls0_1_ otrip_decoded_1_ dvdd avss avss avdd avdd otrip_decoded_avdd_1_ sky130_fd_sc_hvl__lsbuflv2hv_1
xIlvls0_0_ otrip_decoded_0_ dvdd avss avss avdd avdd otrip_decoded_avdd_0_ sky130_fd_sc_hvl__lsbuflv2hv_1
xIlvls1 ena dvdd avss avss avdd avdd ena_avdd sky130_fd_sc_hvl__lsbuflv2hv_1
xIlvls2 isrc_sel dvdd avss avss avdd avdd isrc_sel_avdd sky130_fd_sc_hvl__lsbuflv2hv_1
xIrsmux avdd vin otrip_decoded_avdd_15_ otrip_decoded_avdd_14_ otrip_decoded_avdd_13_ otrip_decoded_avdd_12_
+ otrip_decoded_avdd_11_ otrip_decoded_avdd_10_ otrip_decoded_avdd_9_ otrip_decoded_avdd_8_ otrip_decoded_avdd_7_ otrip_decoded_avdd_6_
+ otrip_decoded_avdd_5_ otrip_decoded_avdd_4_ otrip_decoded_avdd_3_ otrip_decoded_avdd_2_ otrip_decoded_avdd_1_ otrip_decoded_avdd_0_ dvdd dvss ena_avdd
+ avss rstring_mux
xIcomp_brout avdd ibias dcomp ena_avdd vbg_1v2 vin avss comparator
xIbiasgen avdd itest ibias ibg_200n vbg_1v2 isrc_sel_avdd ena_avdd avss ibias_gen
xIinv3 net2 dvss dvss dvdd dvdd net1 sky130_fd_sc_hd__inv_4
xIinv4 net1 dvss dvss dvdd dvdd ovout sky130_fd_sc_hd__inv_16
.ends


* expanding   symbol:  rstring_mux.sym # of pins=7
** sym_path: /home/rtsang/chipalooza/sky130_ajc_ip__overvoltage/xschem/rstring_mux.sym
** sch_path: /home/rtsang/chipalooza/sky130_ajc_ip__overvoltage/xschem/rstring_mux.sch
.subckt rstring_mux avdd vout otrip_decoded_avdd_15_ otrip_decoded_avdd_14_ otrip_decoded_avdd_13_ otrip_decoded_avdd_12_
+ otrip_decoded_avdd_11_ otrip_decoded_avdd_10_ otrip_decoded_avdd_9_ otrip_decoded_avdd_8_ otrip_decoded_avdd_7_ otrip_decoded_avdd_6_
+ otrip_decoded_avdd_5_ otrip_decoded_avdd_4_ otrip_decoded_avdd_3_ otrip_decoded_avdd_2_ otrip_decoded_avdd_1_ otrip_decoded_avdd_0_ dvdd dvss ena avss
*.ipin avdd
*.ipin avss
*.opin vout
*.ipin ena
*.ipin
*+ otrip_decoded_avdd_15_,otrip_decoded_avdd_14_,otrip_decoded_avdd_13_,otrip_decoded_avdd_12_,otrip_decoded_avdd_11_,otrip_decoded_avdd_10_,otrip_decoded_avdd_9_,otrip_decoded_avdd_8_,otrip_decoded_avdd_7_,otrip_decoded_avdd_6_,otrip_decoded_avdd_5_,otrip_decoded_avdd_4_,otrip_decoded_avdd_3_,otrip_decoded_avdd_2_,otrip_decoded_avdd_1_,otrip_decoded_avdd_0_
*.ipin dvss
*.ipin dvdd
XR1 net3 net4 avss sky130_fd_pr__res_xhigh_po W=2 L=25 mult=1 m=1
XR2 net4 net5 avss sky130_fd_pr__res_xhigh_po W=2 L=25 mult=1 m=1
XR0 net1 net3 avss sky130_fd_pr__res_xhigh_po W=2 L=25 mult=1 m=1
XR3 net5 net6 avss sky130_fd_pr__res_xhigh_po W=2 L=25 mult=1 m=1
XR4 net6 net7 avss sky130_fd_pr__res_xhigh_po W=2 L=25 mult=1 m=1
XR5 net7 net8 avss sky130_fd_pr__res_xhigh_po W=2 L=25 mult=1 m=1
XR6 net8 net9 avss sky130_fd_pr__res_xhigh_po W=2 L=25 mult=1 m=1
XR7 net9 net10 avss sky130_fd_pr__res_xhigh_po W=2 L=25 mult=1 m=1
XR8 net10 net11 avss sky130_fd_pr__res_xhigh_po W=2 L=25 mult=1 m=1
XR9 net11 net12 avss sky130_fd_pr__res_xhigh_po W=2 L=25 mult=1 m=1
XR10 net12 net13 avss sky130_fd_pr__res_xhigh_po W=2 L=25 mult=1 m=1
XR11 net13 net14 avss sky130_fd_pr__res_xhigh_po W=2 L=25 mult=1 m=1
XR12 net14 net15 avss sky130_fd_pr__res_xhigh_po W=2 L=25 mult=1 m=1
XR13 net15 net16 avss sky130_fd_pr__res_xhigh_po W=2 L=25 mult=1 m=1
XR14 net16 net17 avss sky130_fd_pr__res_xhigh_po W=2 L=25 mult=1 m=1
XR15 net17 net18 avss sky130_fd_pr__res_xhigh_po W=2 L=25 mult=1 m=1
XR16 net18 net19 avss sky130_fd_pr__res_xhigh_po W=2 L=25 mult=1 m=1
XR17 net19 net20 avss sky130_fd_pr__res_xhigh_po W=2 L=25 mult=1 m=1
XR18 net20 net21 avss sky130_fd_pr__res_xhigh_po W=2 L=25 mult=1 m=1
XR19 net21 net22 avss sky130_fd_pr__res_xhigh_po W=2 L=25 mult=1 m=1
XR20 net22 net23 avss sky130_fd_pr__res_xhigh_po W=2 L=25 mult=1 m=1
XR21 net23 net24 avss sky130_fd_pr__res_xhigh_po W=2 L=25 mult=1 m=1
XR22 net24 vtrip15 avss sky130_fd_pr__res_xhigh_po W=2 L=25 mult=1 m=1
XR23 vtrip15 vtrip14 avss sky130_fd_pr__res_xhigh_po W=2 L=25 mult=1 m=1
XR24 vtrip14 vtrip13 avss sky130_fd_pr__res_xhigh_po W=2 L=25 mult=1 m=1
XR25 vtrip13 vtrip12 avss sky130_fd_pr__res_xhigh_po W=2 L=25 mult=1 m=1
XR26 vtrip12 vtrip11 avss sky130_fd_pr__res_xhigh_po W=2 L=25 mult=1 m=1
XR27 vtrip11 vtrip10 avss sky130_fd_pr__res_xhigh_po W=2 L=25 mult=1 m=1
XR28 vtrip10 vtrip9 avss sky130_fd_pr__res_xhigh_po W=2 L=25 mult=1 m=1
XR29 vtrip9 vtrip8 avss sky130_fd_pr__res_xhigh_po W=2 L=25 mult=1 m=1
XR30 vtrip8 vtrip7 avss sky130_fd_pr__res_xhigh_po W=2 L=25 mult=1 m=1
XR31 vtrip7 vtrip6 avss sky130_fd_pr__res_xhigh_po W=2 L=25 mult=1 m=1
XR32 vtrip6 vtrip5 avss sky130_fd_pr__res_xhigh_po W=2 L=25 mult=1 m=1
XR33 vtrip5 vtrip4 avss sky130_fd_pr__res_xhigh_po W=2 L=25 mult=1 m=1
XR34 vtrip4 vtrip3 avss sky130_fd_pr__res_xhigh_po W=2 L=25 mult=1 m=1
XR35 vtrip3 vtrip2 avss sky130_fd_pr__res_xhigh_po W=2 L=25 mult=1 m=1
XR36 vtrip2 vtrip1 avss sky130_fd_pr__res_xhigh_po W=2 L=25 mult=1 m=1
XR37 vtrip1 vtrip0 avss sky130_fd_pr__res_xhigh_po W=2 L=25 mult=1 m=1
XR38 vtrip0 net25 avss sky130_fd_pr__res_xhigh_po W=2 L=25 mult=1 m=1
XR39 net25 net26 avss sky130_fd_pr__res_xhigh_po W=2 L=25 mult=1 m=1
XR40 net26 net27 avss sky130_fd_pr__res_xhigh_po W=2 L=25 mult=1 m=1
XR41 net27 net28 avss sky130_fd_pr__res_xhigh_po W=2 L=25 mult=1 m=1
XR42 net28 net29 avss sky130_fd_pr__res_xhigh_po W=2 L=25 mult=1 m=1
XR43 net29 net30 avss sky130_fd_pr__res_xhigh_po W=2 L=25 mult=1 m=1
XR44 net30 net31 avss sky130_fd_pr__res_xhigh_po W=2 L=25 mult=1 m=1
XR45 net31 net32 avss sky130_fd_pr__res_xhigh_po W=2 L=25 mult=1 m=1
XR46 net32 net33 avss sky130_fd_pr__res_xhigh_po W=2 L=25 mult=1 m=1
XR47 net33 net34 avss sky130_fd_pr__res_xhigh_po W=2 L=25 mult=1 m=1
XR48 net34 net35 avss sky130_fd_pr__res_xhigh_po W=2 L=25 mult=1 m=1
XR49 net35 net36 avss sky130_fd_pr__res_xhigh_po W=2 L=25 mult=1 m=1
XR50 net36 net37 avss sky130_fd_pr__res_xhigh_po W=2 L=25 mult=1 m=1
XR51 net37 net38 avss sky130_fd_pr__res_xhigh_po W=2 L=25 mult=1 m=1
XR52 net38 net39 avss sky130_fd_pr__res_xhigh_po W=2 L=25 mult=1 m=1
XR53 net39 net40 avss sky130_fd_pr__res_xhigh_po W=2 L=25 mult=1 m=1
XR54 net40 net41 avss sky130_fd_pr__res_xhigh_po W=2 L=25 mult=1 m=1
XR55 net41 net42 avss sky130_fd_pr__res_xhigh_po W=2 L=25 mult=1 m=1
XR56 net42 net43 avss sky130_fd_pr__res_xhigh_po W=2 L=25 mult=1 m=1
XR57 net43 net44 avss sky130_fd_pr__res_xhigh_po W=2 L=25 mult=1 m=1
XR58 net44 net45 avss sky130_fd_pr__res_xhigh_po W=2 L=25 mult=1 m=1
XR59 net45 net46 avss sky130_fd_pr__res_xhigh_po W=2 L=25 mult=1 m=1
XR60 net46 net47 avss sky130_fd_pr__res_xhigh_po W=2 L=25 mult=1 m=1
XR61 net47 net48 avss sky130_fd_pr__res_xhigh_po W=2 L=25 mult=1 m=1
XR62 net48 net49 avss sky130_fd_pr__res_xhigh_po W=2 L=25 mult=1 m=1
XR63 net49 net50 avss sky130_fd_pr__res_xhigh_po W=2 L=25 mult=1 m=1
XR64 net50 net51 avss sky130_fd_pr__res_xhigh_po W=2 L=25 mult=1 m=1
XR65 net51 net52 avss sky130_fd_pr__res_xhigh_po W=2 L=25 mult=1 m=1
XR66 net52 net53 avss sky130_fd_pr__res_xhigh_po W=2 L=25 mult=1 m=1
XR67 net53 net54 avss sky130_fd_pr__res_xhigh_po W=2 L=25 mult=1 m=1
XR68 net54 net55 avss sky130_fd_pr__res_xhigh_po W=2 L=25 mult=1 m=1
XR69 net55 net56 avss sky130_fd_pr__res_xhigh_po W=2 L=25 mult=1 m=1
XMtp_15_ vtrip15 otrip_decoded_b_avdd_15_ vout avdd sky130_fd_pr__pfet_g5v0d10v5 L=0.6 W=5 nf=1 ad='int((nf+1)/2) * W/nf * 0.29' as='int((nf+2)/2) * W/nf * 0.29'
+ pd='2*int((nf+1)/2) * (W/nf + 0.29)' ps='2*int((nf+2)/2) * (W/nf + 0.29)' nrd='0.29 / W' nrs='0.29 / W' sa=0 sb=0 sd=0 mult=2 m=2
XMtp_14_ vtrip14 otrip_decoded_b_avdd_14_ vout avdd sky130_fd_pr__pfet_g5v0d10v5 L=0.6 W=5 nf=1 ad='int((nf+1)/2) * W/nf * 0.29' as='int((nf+2)/2) * W/nf * 0.29'
+ pd='2*int((nf+1)/2) * (W/nf + 0.29)' ps='2*int((nf+2)/2) * (W/nf + 0.29)' nrd='0.29 / W' nrs='0.29 / W' sa=0 sb=0 sd=0 mult=2 m=2
XMtp_13_ vtrip13 otrip_decoded_b_avdd_13_ vout avdd sky130_fd_pr__pfet_g5v0d10v5 L=0.6 W=5 nf=1 ad='int((nf+1)/2) * W/nf * 0.29' as='int((nf+2)/2) * W/nf * 0.29'
+ pd='2*int((nf+1)/2) * (W/nf + 0.29)' ps='2*int((nf+2)/2) * (W/nf + 0.29)' nrd='0.29 / W' nrs='0.29 / W' sa=0 sb=0 sd=0 mult=2 m=2
XMtp_12_ vtrip12 otrip_decoded_b_avdd_12_ vout avdd sky130_fd_pr__pfet_g5v0d10v5 L=0.6 W=5 nf=1 ad='int((nf+1)/2) * W/nf * 0.29' as='int((nf+2)/2) * W/nf * 0.29'
+ pd='2*int((nf+1)/2) * (W/nf + 0.29)' ps='2*int((nf+2)/2) * (W/nf + 0.29)' nrd='0.29 / W' nrs='0.29 / W' sa=0 sb=0 sd=0 mult=2 m=2
XMtp_11_ vtrip11 otrip_decoded_b_avdd_11_ vout avdd sky130_fd_pr__pfet_g5v0d10v5 L=0.6 W=5 nf=1 ad='int((nf+1)/2) * W/nf * 0.29' as='int((nf+2)/2) * W/nf * 0.29'
+ pd='2*int((nf+1)/2) * (W/nf + 0.29)' ps='2*int((nf+2)/2) * (W/nf + 0.29)' nrd='0.29 / W' nrs='0.29 / W' sa=0 sb=0 sd=0 mult=2 m=2
XMtp_10_ vtrip10 otrip_decoded_b_avdd_10_ vout avdd sky130_fd_pr__pfet_g5v0d10v5 L=0.6 W=5 nf=1 ad='int((nf+1)/2) * W/nf * 0.29' as='int((nf+2)/2) * W/nf * 0.29'
+ pd='2*int((nf+1)/2) * (W/nf + 0.29)' ps='2*int((nf+2)/2) * (W/nf + 0.29)' nrd='0.29 / W' nrs='0.29 / W' sa=0 sb=0 sd=0 mult=2 m=2
XMtp_9_ vtrip9 otrip_decoded_b_avdd_9_ vout avdd sky130_fd_pr__pfet_g5v0d10v5 L=0.6 W=5 nf=1 ad='int((nf+1)/2) * W/nf * 0.29' as='int((nf+2)/2) * W/nf * 0.29'
+ pd='2*int((nf+1)/2) * (W/nf + 0.29)' ps='2*int((nf+2)/2) * (W/nf + 0.29)' nrd='0.29 / W' nrs='0.29 / W' sa=0 sb=0 sd=0 mult=2 m=2
XMtp_8_ vtrip8 otrip_decoded_b_avdd_8_ vout avdd sky130_fd_pr__pfet_g5v0d10v5 L=0.6 W=5 nf=1 ad='int((nf+1)/2) * W/nf * 0.29' as='int((nf+2)/2) * W/nf * 0.29'
+ pd='2*int((nf+1)/2) * (W/nf + 0.29)' ps='2*int((nf+2)/2) * (W/nf + 0.29)' nrd='0.29 / W' nrs='0.29 / W' sa=0 sb=0 sd=0 mult=2 m=2
XMtp_7_ vtrip7 otrip_decoded_b_avdd_7_ vout avdd sky130_fd_pr__pfet_g5v0d10v5 L=0.6 W=5 nf=1 ad='int((nf+1)/2) * W/nf * 0.29' as='int((nf+2)/2) * W/nf * 0.29'
+ pd='2*int((nf+1)/2) * (W/nf + 0.29)' ps='2*int((nf+2)/2) * (W/nf + 0.29)' nrd='0.29 / W' nrs='0.29 / W' sa=0 sb=0 sd=0 mult=2 m=2
XMtp_6_ vtrip6 otrip_decoded_b_avdd_6_ vout avdd sky130_fd_pr__pfet_g5v0d10v5 L=0.6 W=5 nf=1 ad='int((nf+1)/2) * W/nf * 0.29' as='int((nf+2)/2) * W/nf * 0.29'
+ pd='2*int((nf+1)/2) * (W/nf + 0.29)' ps='2*int((nf+2)/2) * (W/nf + 0.29)' nrd='0.29 / W' nrs='0.29 / W' sa=0 sb=0 sd=0 mult=2 m=2
XMtp_5_ vtrip5 otrip_decoded_b_avdd_5_ vout avdd sky130_fd_pr__pfet_g5v0d10v5 L=0.6 W=5 nf=1 ad='int((nf+1)/2) * W/nf * 0.29' as='int((nf+2)/2) * W/nf * 0.29'
+ pd='2*int((nf+1)/2) * (W/nf + 0.29)' ps='2*int((nf+2)/2) * (W/nf + 0.29)' nrd='0.29 / W' nrs='0.29 / W' sa=0 sb=0 sd=0 mult=2 m=2
XMtp_4_ vtrip4 otrip_decoded_b_avdd_4_ vout avdd sky130_fd_pr__pfet_g5v0d10v5 L=0.6 W=5 nf=1 ad='int((nf+1)/2) * W/nf * 0.29' as='int((nf+2)/2) * W/nf * 0.29'
+ pd='2*int((nf+1)/2) * (W/nf + 0.29)' ps='2*int((nf+2)/2) * (W/nf + 0.29)' nrd='0.29 / W' nrs='0.29 / W' sa=0 sb=0 sd=0 mult=2 m=2
XMtp_3_ vtrip3 otrip_decoded_b_avdd_3_ vout avdd sky130_fd_pr__pfet_g5v0d10v5 L=0.6 W=5 nf=1 ad='int((nf+1)/2) * W/nf * 0.29' as='int((nf+2)/2) * W/nf * 0.29'
+ pd='2*int((nf+1)/2) * (W/nf + 0.29)' ps='2*int((nf+2)/2) * (W/nf + 0.29)' nrd='0.29 / W' nrs='0.29 / W' sa=0 sb=0 sd=0 mult=2 m=2
XMtp_2_ vtrip2 otrip_decoded_b_avdd_2_ vout avdd sky130_fd_pr__pfet_g5v0d10v5 L=0.6 W=5 nf=1 ad='int((nf+1)/2) * W/nf * 0.29' as='int((nf+2)/2) * W/nf * 0.29'
+ pd='2*int((nf+1)/2) * (W/nf + 0.29)' ps='2*int((nf+2)/2) * (W/nf + 0.29)' nrd='0.29 / W' nrs='0.29 / W' sa=0 sb=0 sd=0 mult=2 m=2
XMtp_1_ vtrip1 otrip_decoded_b_avdd_1_ vout avdd sky130_fd_pr__pfet_g5v0d10v5 L=0.6 W=5 nf=1 ad='int((nf+1)/2) * W/nf * 0.29' as='int((nf+2)/2) * W/nf * 0.29'
+ pd='2*int((nf+1)/2) * (W/nf + 0.29)' ps='2*int((nf+2)/2) * (W/nf + 0.29)' nrd='0.29 / W' nrs='0.29 / W' sa=0 sb=0 sd=0 mult=2 m=2
XMtp_0_ vtrip0 otrip_decoded_b_avdd_0_ vout avdd sky130_fd_pr__pfet_g5v0d10v5 L=0.6 W=5 nf=1 ad='int((nf+1)/2) * W/nf * 0.29' as='int((nf+2)/2) * W/nf * 0.29'
+ pd='2*int((nf+1)/2) * (W/nf + 0.29)' ps='2*int((nf+2)/2) * (W/nf + 0.29)' nrd='0.29 / W' nrs='0.29 / W' sa=0 sb=0 sd=0 mult=2 m=2
XMtn_15_ vout otrip_decoded_avdd_15_ vtrip15 avss sky130_fd_pr__nfet_g5v0d10v5 L=0.6 W=5 nf=1 ad='int((nf+1)/2) * W/nf * 0.29' as='int((nf+2)/2) * W/nf * 0.29'
+ pd='2*int((nf+1)/2) * (W/nf + 0.29)' ps='2*int((nf+2)/2) * (W/nf + 0.29)' nrd='0.29 / W' nrs='0.29 / W' sa=0 sb=0 sd=0 mult=2 m=2
XMtn_14_ vout otrip_decoded_avdd_14_ vtrip14 avss sky130_fd_pr__nfet_g5v0d10v5 L=0.6 W=5 nf=1 ad='int((nf+1)/2) * W/nf * 0.29' as='int((nf+2)/2) * W/nf * 0.29'
+ pd='2*int((nf+1)/2) * (W/nf + 0.29)' ps='2*int((nf+2)/2) * (W/nf + 0.29)' nrd='0.29 / W' nrs='0.29 / W' sa=0 sb=0 sd=0 mult=2 m=2
XMtn_13_ vout otrip_decoded_avdd_13_ vtrip13 avss sky130_fd_pr__nfet_g5v0d10v5 L=0.6 W=5 nf=1 ad='int((nf+1)/2) * W/nf * 0.29' as='int((nf+2)/2) * W/nf * 0.29'
+ pd='2*int((nf+1)/2) * (W/nf + 0.29)' ps='2*int((nf+2)/2) * (W/nf + 0.29)' nrd='0.29 / W' nrs='0.29 / W' sa=0 sb=0 sd=0 mult=2 m=2
XMtn_12_ vout otrip_decoded_avdd_12_ vtrip12 avss sky130_fd_pr__nfet_g5v0d10v5 L=0.6 W=5 nf=1 ad='int((nf+1)/2) * W/nf * 0.29' as='int((nf+2)/2) * W/nf * 0.29'
+ pd='2*int((nf+1)/2) * (W/nf + 0.29)' ps='2*int((nf+2)/2) * (W/nf + 0.29)' nrd='0.29 / W' nrs='0.29 / W' sa=0 sb=0 sd=0 mult=2 m=2
XMtn_11_ vout otrip_decoded_avdd_11_ vtrip11 avss sky130_fd_pr__nfet_g5v0d10v5 L=0.6 W=5 nf=1 ad='int((nf+1)/2) * W/nf * 0.29' as='int((nf+2)/2) * W/nf * 0.29'
+ pd='2*int((nf+1)/2) * (W/nf + 0.29)' ps='2*int((nf+2)/2) * (W/nf + 0.29)' nrd='0.29 / W' nrs='0.29 / W' sa=0 sb=0 sd=0 mult=2 m=2
XMtn_10_ vout otrip_decoded_avdd_10_ vtrip10 avss sky130_fd_pr__nfet_g5v0d10v5 L=0.6 W=5 nf=1 ad='int((nf+1)/2) * W/nf * 0.29' as='int((nf+2)/2) * W/nf * 0.29'
+ pd='2*int((nf+1)/2) * (W/nf + 0.29)' ps='2*int((nf+2)/2) * (W/nf + 0.29)' nrd='0.29 / W' nrs='0.29 / W' sa=0 sb=0 sd=0 mult=2 m=2
XMtn_9_ vout otrip_decoded_avdd_9_ vtrip9 avss sky130_fd_pr__nfet_g5v0d10v5 L=0.6 W=5 nf=1 ad='int((nf+1)/2) * W/nf * 0.29' as='int((nf+2)/2) * W/nf * 0.29'
+ pd='2*int((nf+1)/2) * (W/nf + 0.29)' ps='2*int((nf+2)/2) * (W/nf + 0.29)' nrd='0.29 / W' nrs='0.29 / W' sa=0 sb=0 sd=0 mult=2 m=2
XMtn_8_ vout otrip_decoded_avdd_8_ vtrip8 avss sky130_fd_pr__nfet_g5v0d10v5 L=0.6 W=5 nf=1 ad='int((nf+1)/2) * W/nf * 0.29' as='int((nf+2)/2) * W/nf * 0.29'
+ pd='2*int((nf+1)/2) * (W/nf + 0.29)' ps='2*int((nf+2)/2) * (W/nf + 0.29)' nrd='0.29 / W' nrs='0.29 / W' sa=0 sb=0 sd=0 mult=2 m=2
XMtn_7_ vout otrip_decoded_avdd_7_ vtrip7 avss sky130_fd_pr__nfet_g5v0d10v5 L=0.6 W=5 nf=1 ad='int((nf+1)/2) * W/nf * 0.29' as='int((nf+2)/2) * W/nf * 0.29'
+ pd='2*int((nf+1)/2) * (W/nf + 0.29)' ps='2*int((nf+2)/2) * (W/nf + 0.29)' nrd='0.29 / W' nrs='0.29 / W' sa=0 sb=0 sd=0 mult=2 m=2
XMtn_6_ vout otrip_decoded_avdd_6_ vtrip6 avss sky130_fd_pr__nfet_g5v0d10v5 L=0.6 W=5 nf=1 ad='int((nf+1)/2) * W/nf * 0.29' as='int((nf+2)/2) * W/nf * 0.29'
+ pd='2*int((nf+1)/2) * (W/nf + 0.29)' ps='2*int((nf+2)/2) * (W/nf + 0.29)' nrd='0.29 / W' nrs='0.29 / W' sa=0 sb=0 sd=0 mult=2 m=2
XMtn_5_ vout otrip_decoded_avdd_5_ vtrip5 avss sky130_fd_pr__nfet_g5v0d10v5 L=0.6 W=5 nf=1 ad='int((nf+1)/2) * W/nf * 0.29' as='int((nf+2)/2) * W/nf * 0.29'
+ pd='2*int((nf+1)/2) * (W/nf + 0.29)' ps='2*int((nf+2)/2) * (W/nf + 0.29)' nrd='0.29 / W' nrs='0.29 / W' sa=0 sb=0 sd=0 mult=2 m=2
XMtn_4_ vout otrip_decoded_avdd_4_ vtrip4 avss sky130_fd_pr__nfet_g5v0d10v5 L=0.6 W=5 nf=1 ad='int((nf+1)/2) * W/nf * 0.29' as='int((nf+2)/2) * W/nf * 0.29'
+ pd='2*int((nf+1)/2) * (W/nf + 0.29)' ps='2*int((nf+2)/2) * (W/nf + 0.29)' nrd='0.29 / W' nrs='0.29 / W' sa=0 sb=0 sd=0 mult=2 m=2
XMtn_3_ vout otrip_decoded_avdd_3_ vtrip3 avss sky130_fd_pr__nfet_g5v0d10v5 L=0.6 W=5 nf=1 ad='int((nf+1)/2) * W/nf * 0.29' as='int((nf+2)/2) * W/nf * 0.29'
+ pd='2*int((nf+1)/2) * (W/nf + 0.29)' ps='2*int((nf+2)/2) * (W/nf + 0.29)' nrd='0.29 / W' nrs='0.29 / W' sa=0 sb=0 sd=0 mult=2 m=2
XMtn_2_ vout otrip_decoded_avdd_2_ vtrip2 avss sky130_fd_pr__nfet_g5v0d10v5 L=0.6 W=5 nf=1 ad='int((nf+1)/2) * W/nf * 0.29' as='int((nf+2)/2) * W/nf * 0.29'
+ pd='2*int((nf+1)/2) * (W/nf + 0.29)' ps='2*int((nf+2)/2) * (W/nf + 0.29)' nrd='0.29 / W' nrs='0.29 / W' sa=0 sb=0 sd=0 mult=2 m=2
XMtn_1_ vout otrip_decoded_avdd_1_ vtrip1 avss sky130_fd_pr__nfet_g5v0d10v5 L=0.6 W=5 nf=1 ad='int((nf+1)/2) * W/nf * 0.29' as='int((nf+2)/2) * W/nf * 0.29'
+ pd='2*int((nf+1)/2) * (W/nf + 0.29)' ps='2*int((nf+2)/2) * (W/nf + 0.29)' nrd='0.29 / W' nrs='0.29 / W' sa=0 sb=0 sd=0 mult=2 m=2
XMtn_0_ vout otrip_decoded_avdd_0_ vtrip0 avss sky130_fd_pr__nfet_g5v0d10v5 L=0.6 W=5 nf=1 ad='int((nf+1)/2) * W/nf * 0.29' as='int((nf+2)/2) * W/nf * 0.29'
+ pd='2*int((nf+1)/2) * (W/nf + 0.29)' ps='2*int((nf+2)/2) * (W/nf + 0.29)' nrd='0.29 / W' nrs='0.29 / W' sa=0 sb=0 sd=0 mult=2 m=2
XMena net1 ena avss avss sky130_fd_pr__nfet_g5v0d10v5 L=0.6 W=5 nf=1 ad='int((nf+1)/2) * W/nf * 0.29' as='int((nf+2)/2) * W/nf * 0.29'
+ pd='2*int((nf+1)/2) * (W/nf + 0.29)' ps='2*int((nf+2)/2) * (W/nf + 0.29)' nrd='0.29 / W' nrs='0.29 / W' sa=0 sb=0 sd=0 mult=16 m=16
xIinv_15_ otrip_decoded_avdd_15_ avss avss avdd avdd otrip_decoded_b_avdd_15_ sky130_fd_sc_hvl__inv_1
xIinv_14_ otrip_decoded_avdd_14_ avss avss avdd avdd otrip_decoded_b_avdd_14_ sky130_fd_sc_hvl__inv_1
xIinv_13_ otrip_decoded_avdd_13_ avss avss avdd avdd otrip_decoded_b_avdd_13_ sky130_fd_sc_hvl__inv_1
xIinv_12_ otrip_decoded_avdd_12_ avss avss avdd avdd otrip_decoded_b_avdd_12_ sky130_fd_sc_hvl__inv_1
xIinv_11_ otrip_decoded_avdd_11_ avss avss avdd avdd otrip_decoded_b_avdd_11_ sky130_fd_sc_hvl__inv_1
xIinv_10_ otrip_decoded_avdd_10_ avss avss avdd avdd otrip_decoded_b_avdd_10_ sky130_fd_sc_hvl__inv_1
xIinv_9_ otrip_decoded_avdd_9_ avss avss avdd avdd otrip_decoded_b_avdd_9_ sky130_fd_sc_hvl__inv_1
xIinv_8_ otrip_decoded_avdd_8_ avss avss avdd avdd otrip_decoded_b_avdd_8_ sky130_fd_sc_hvl__inv_1
xIinv_7_ otrip_decoded_avdd_7_ avss avss avdd avdd otrip_decoded_b_avdd_7_ sky130_fd_sc_hvl__inv_1
xIinv_6_ otrip_decoded_avdd_6_ avss avss avdd avdd otrip_decoded_b_avdd_6_ sky130_fd_sc_hvl__inv_1
xIinv_5_ otrip_decoded_avdd_5_ avss avss avdd avdd otrip_decoded_b_avdd_5_ sky130_fd_sc_hvl__inv_1
xIinv_4_ otrip_decoded_avdd_4_ avss avss avdd avdd otrip_decoded_b_avdd_4_ sky130_fd_sc_hvl__inv_1
xIinv_3_ otrip_decoded_avdd_3_ avss avss avdd avdd otrip_decoded_b_avdd_3_ sky130_fd_sc_hvl__inv_1
xIinv_2_ otrip_decoded_avdd_2_ avss avss avdd avdd otrip_decoded_b_avdd_2_ sky130_fd_sc_hvl__inv_1
xIinv_1_ otrip_decoded_avdd_1_ avss avss avdd avdd otrip_decoded_b_avdd_1_ sky130_fd_sc_hvl__inv_1
xIinv_0_ otrip_decoded_avdd_0_ avss avss avdd avdd otrip_decoded_b_avdd_0_ sky130_fd_sc_hvl__inv_1
XR70 net56 net2 avss sky130_fd_pr__res_xhigh_po W=2 L=25 mult=1 m=1
XR71 net2 net57 avss sky130_fd_pr__res_xhigh_po W=2 L=25 mult=1 m=1
XR72 net57 net58 avss sky130_fd_pr__res_xhigh_po W=2 L=25 mult=1 m=1
XR73 net58 net59 avss sky130_fd_pr__res_xhigh_po W=2 L=25 mult=1 m=1
XR74 net59 net60 avss sky130_fd_pr__res_xhigh_po W=2 L=25 mult=1 m=1
XR75 net60 net61 avss sky130_fd_pr__res_xhigh_po W=2 L=25 mult=1 m=1
XR76 net61 net62 avss sky130_fd_pr__res_xhigh_po W=2 L=25 mult=1 m=1
XR77 net62 net63 avss sky130_fd_pr__res_xhigh_po W=2 L=25 mult=1 m=1
XR78 net63 net64 avss sky130_fd_pr__res_xhigh_po W=2 L=25 mult=1 m=1
XR79 net64 net65 avss sky130_fd_pr__res_xhigh_po W=2 L=25 mult=1 m=1
XR80 net65 net66 avss sky130_fd_pr__res_xhigh_po W=2 L=25 mult=1 m=1
XR81 net66 net67 avss sky130_fd_pr__res_xhigh_po W=2 L=25 mult=1 m=1
XR82 net67 net68 avss sky130_fd_pr__res_xhigh_po W=2 L=25 mult=1 m=1
XR83 net68 net69 avss sky130_fd_pr__res_xhigh_po W=2 L=25 mult=1 m=1
XR84 net69 net70 avss sky130_fd_pr__res_xhigh_po W=2 L=25 mult=1 m=1
XR85 net70 net71 avss sky130_fd_pr__res_xhigh_po W=2 L=25 mult=1 m=1
XR86 net71 net72 avss sky130_fd_pr__res_xhigh_po W=2 L=25 mult=1 m=1
XR87 net72 net73 avss sky130_fd_pr__res_xhigh_po W=2 L=25 mult=1 m=1
XR88 net73 net74 avss sky130_fd_pr__res_xhigh_po W=2 L=25 mult=1 m=1
XR89 net74 net75 avss sky130_fd_pr__res_xhigh_po W=2 L=25 mult=1 m=1
XR90 net75 net76 avss sky130_fd_pr__res_xhigh_po W=2 L=25 mult=1 m=1
XR91 net76 net77 avss sky130_fd_pr__res_xhigh_po W=2 L=25 mult=1 m=1
XR92 net77 net78 avss sky130_fd_pr__res_xhigh_po W=2 L=25 mult=1 m=1
XR93 net78 net79 avss sky130_fd_pr__res_xhigh_po W=2 L=25 mult=1 m=1
XR94 net79 net80 avss sky130_fd_pr__res_xhigh_po W=2 L=25 mult=1 m=1
XR95 net80 net81 avss sky130_fd_pr__res_xhigh_po W=2 L=25 mult=1 m=1
XR96 net81 net82 avss sky130_fd_pr__res_xhigh_po W=2 L=25 mult=1 m=1
XR97 net82 net83 avss sky130_fd_pr__res_xhigh_po W=2 L=25 mult=1 m=1
XR98 net83 net84 avss sky130_fd_pr__res_xhigh_po W=2 L=25 mult=1 m=1
XR99 net84 net85 avss sky130_fd_pr__res_xhigh_po W=2 L=25 mult=1 m=1
XR100 net85 net86 avss sky130_fd_pr__res_xhigh_po W=2 L=25 mult=1 m=1
XR101 net86 net87 avss sky130_fd_pr__res_xhigh_po W=2 L=25 mult=1 m=1
XR102 net87 net88 avss sky130_fd_pr__res_xhigh_po W=2 L=25 mult=1 m=1
XR103 net88 avdd avss sky130_fd_pr__res_xhigh_po W=2 L=25 mult=1 m=1
.ends


* expanding   symbol:  comparator.sym # of pins=7
** sym_path: /home/rtsang/chipalooza/sky130_ajc_ip__overvoltage/xschem/comparator.sym
** sch_path: /home/rtsang/chipalooza/sky130_ajc_ip__overvoltage/xschem/comparator.sch
.subckt comparator avdd ibias out ena vinn vinp avss
*.ipin ena
*.ipin avdd
*.ipin avss
*.ipin ibias
*.ipin vinn
*.ipin vinp
*.opin out
XMb vn vn avss avss sky130_fd_pr__nfet_g5v0d10v5 L=8 W=1 nf=1 ad='int((nf+1)/2) * W/nf * 0.29' as='int((nf+2)/2) * W/nf * 0.29' pd='2*int((nf+1)/2) * (W/nf + 0.29)'
+ ps='2*int((nf+2)/2) * (W/nf + 0.29)' nrd='0.29 / W' nrs='0.29 / W' sa=0 sb=0 sd=0 mult=2 m=2
XMta vt vn avss avss sky130_fd_pr__nfet_g5v0d10v5 L=8 W=1 nf=1 ad='int((nf+1)/2) * W/nf * 0.29' as='int((nf+2)/2) * W/nf * 0.29' pd='2*int((nf+1)/2) * (W/nf + 0.29)'
+ ps='2*int((nf+2)/2) * (W/nf + 0.29)' nrd='0.29 / W' nrs='0.29 / W' sa=0 sb=0 sd=0 mult=2 m=2
XMl0 vn ena_b avss avss sky130_fd_pr__nfet_g5v0d10v5 L=1 W=1 nf=1 ad='int((nf+1)/2) * W/nf * 0.29' as='int((nf+2)/2) * W/nf * 0.29'
+ pd='2*int((nf+1)/2) * (W/nf + 0.29)' ps='2*int((nf+2)/2) * (W/nf + 0.29)' nrd='0.29 / W' nrs='0.29 / W' sa=0 sb=0 sd=0 mult=1 m=1
XMinv0 ena_b ena avss avss sky130_fd_pr__nfet_g5v0d10v5 L=1 W=1 nf=1 ad='int((nf+1)/2) * W/nf * 0.29' as='int((nf+2)/2) * W/nf * 0.29'
+ pd='2*int((nf+1)/2) * (W/nf + 0.29)' ps='2*int((nf+2)/2) * (W/nf + 0.29)' nrd='0.29 / W' nrs='0.29 / W' sa=0 sb=0 sd=0 mult=1 m=1
XMinv1 ena_b ena avdd avdd sky130_fd_pr__pfet_g5v0d10v5 L=1 W=1 nf=1 ad='int((nf+1)/2) * W/nf * 0.29' as='int((nf+2)/2) * W/nf * 0.29'
+ pd='2*int((nf+1)/2) * (W/nf + 0.29)' ps='2*int((nf+2)/2) * (W/nf + 0.29)' nrd='0.29 / W' nrs='0.29 / W' sa=0 sb=0 sd=0 mult=1 m=1
XMi0 vnn vinn vt vt sky130_fd_pr__nfet_g5v0d10v5 L=8 W=1 nf=1 ad='int((nf+1)/2) * W/nf * 0.29' as='int((nf+2)/2) * W/nf * 0.29' pd='2*int((nf+1)/2) * (W/nf + 0.29)'
+ ps='2*int((nf+2)/2) * (W/nf + 0.29)' nrd='0.29 / W' nrs='0.29 / W' sa=0 sb=0 sd=0 mult=4 m=4
XMi1 vpp vinp vt vt sky130_fd_pr__nfet_g5v0d10v5 L=8 W=1 nf=1 ad='int((nf+1)/2) * W/nf * 0.29' as='int((nf+2)/2) * W/nf * 0.29' pd='2*int((nf+1)/2) * (W/nf + 0.29)'
+ ps='2*int((nf+2)/2) * (W/nf + 0.29)' nrd='0.29 / W' nrs='0.29 / W' sa=0 sb=0 sd=0 mult=4 m=4
XMld1 vpp vpp avdd avdd sky130_fd_pr__pfet_g5v0d10v5 L=8 W=1 nf=1 ad='int((nf+1)/2) * W/nf * 0.29' as='int((nf+2)/2) * W/nf * 0.29'
+ pd='2*int((nf+1)/2) * (W/nf + 0.29)' ps='2*int((nf+2)/2) * (W/nf + 0.29)' nrd='0.29 / W' nrs='0.29 / W' sa=0 sb=0 sd=0 mult=2 m=2
XMh1 vnn vpp avdd avdd sky130_fd_pr__pfet_g5v0d10v5 L=8 W=1.5 nf=1 ad='int((nf+1)/2) * W/nf * 0.29' as='int((nf+2)/2) * W/nf * 0.29'
+ pd='2*int((nf+1)/2) * (W/nf + 0.29)' ps='2*int((nf+2)/2) * (W/nf + 0.29)' nrd='0.29 / W' nrs='0.29 / W' sa=0 sb=0 sd=0 mult=2 m=2
XMh0 vpp vnn avdd avdd sky130_fd_pr__pfet_g5v0d10v5 L=8 W=1.5 nf=1 ad='int((nf+1)/2) * W/nf * 0.29' as='int((nf+2)/2) * W/nf * 0.29'
+ pd='2*int((nf+1)/2) * (W/nf + 0.29)' ps='2*int((nf+2)/2) * (W/nf + 0.29)' nrd='0.29 / W' nrs='0.29 / W' sa=0 sb=0 sd=0 mult=2 m=2
XMld0 vnn vnn avdd avdd sky130_fd_pr__pfet_g5v0d10v5 L=8 W=1 nf=1 ad='int((nf+1)/2) * W/nf * 0.29' as='int((nf+2)/2) * W/nf * 0.29'
+ pd='2*int((nf+1)/2) * (W/nf + 0.29)' ps='2*int((nf+2)/2) * (W/nf + 0.29)' nrd='0.29 / W' nrs='0.29 / W' sa=0 sb=0 sd=0 mult=2 m=2