*SPEF "ieee 1481-1999"
*DESIGN "overvoltage_dig"
*DATE "12:54:59 Thursday April 04, 2024"
*VENDOR "The OpenROAD Project"
*PROGRAM "OpenROAD"
*VERSION "0889970d1790a2617e69f253221b8bd7626e51dc"
*DESIGN_FLOW "NAME_SCOPE LOCAL" "PIN_CAP NONE"
*DIVIDER /
*DELIMITER :
*BUS_DELIMITER []
*T_UNIT 1 NS
*C_UNIT 1 PF
*R_UNIT 1 OHM
*L_UNIT 1 HENRY

*NAME_MAP
*3 otrip[0]
*4 otrip[1]
*5 otrip[2]
*6 otrip[3]
*7 otrip_decoded[0]
*8 otrip_decoded[10]
*9 otrip_decoded[11]
*10 otrip_decoded[12]
*11 otrip_decoded[13]
*12 otrip_decoded[14]
*13 otrip_decoded[15]
*14 otrip_decoded[1]
*15 otrip_decoded[2]
*16 otrip_decoded[3]
*17 otrip_decoded[4]
*18 otrip_decoded[5]
*19 otrip_decoded[6]
*20 otrip_decoded[7]
*21 otrip_decoded[8]
*22 otrip_decoded[9]
*23 net1
*24 net10
*25 net11
*26 net12
*27 net13
*28 net14
*29 net15
*30 net16
*31 net17
*32 net18
*33 net19
*34 net2
*35 net20
*36 net21
*37 net22
*38 net23
*39 net24
*40 net25
*41 net26
*42 net27
*43 net28
*44 net3
*45 net4
*46 net5
*47 net6
*48 net7
*49 net8
*50 net9
*51 FILLER_0_0_100
*52 FILLER_0_0_15
*53 FILLER_0_0_27
*54 FILLER_0_0_29
*55 FILLER_0_0_3
*56 FILLER_0_0_35
*57 FILLER_0_0_42
*58 FILLER_0_0_49
*59 FILLER_0_0_63
*60 FILLER_0_0_69
*61 FILLER_0_0_76
*62 FILLER_0_0_83
*63 FILLER_0_0_85
*64 FILLER_0_0_93
*65 FILLER_0_10_15
*66 FILLER_0_10_27
*67 FILLER_0_10_29
*68 FILLER_0_10_3
*69 FILLER_0_10_41
*70 FILLER_0_10_53
*71 FILLER_0_10_65
*72 FILLER_0_10_77
*73 FILLER_0_10_83
*74 FILLER_0_10_85
*75 FILLER_0_10_97
*76 FILLER_0_11_101
*77 FILLER_0_11_15
*78 FILLER_0_11_27
*79 FILLER_0_11_3
*80 FILLER_0_11_39
*81 FILLER_0_11_51
*82 FILLER_0_11_55
*83 FILLER_0_11_57
*84 FILLER_0_11_69
*85 FILLER_0_11_81
*86 FILLER_0_11_93
*87 FILLER_0_12_15
*88 FILLER_0_12_27
*89 FILLER_0_12_29
*90 FILLER_0_12_3
*91 FILLER_0_12_41
*92 FILLER_0_12_53
*93 FILLER_0_12_65
*94 FILLER_0_12_77
*95 FILLER_0_12_83
*96 FILLER_0_12_85
*97 FILLER_0_12_97
*98 FILLER_0_13_15
*99 FILLER_0_13_27
*100 FILLER_0_13_29
*101 FILLER_0_13_3
*102 FILLER_0_13_41
*103 FILLER_0_13_53
*104 FILLER_0_13_57
*105 FILLER_0_13_69
*106 FILLER_0_13_81
*107 FILLER_0_13_85
*108 FILLER_0_13_97
*109 FILLER_0_1_101
*110 FILLER_0_1_15
*111 FILLER_0_1_23
*112 FILLER_0_1_3
*113 FILLER_0_1_54
*114 FILLER_0_1_67
*115 FILLER_0_1_79
*116 FILLER_0_1_87
*117 FILLER_0_2_15
*118 FILLER_0_2_27
*119 FILLER_0_2_29
*120 FILLER_0_2_3
*121 FILLER_0_2_41
*122 FILLER_0_2_53
*123 FILLER_0_2_59
*124 FILLER_0_2_71
*125 FILLER_0_2_83
*126 FILLER_0_2_85
*127 FILLER_0_3_11
*128 FILLER_0_3_24
*129 FILLER_0_3_3
*130 FILLER_0_3_36
*131 FILLER_0_3_48
*132 FILLER_0_3_57
*133 FILLER_0_3_69
*134 FILLER_0_3_81
*135 FILLER_0_4_100
*136 FILLER_0_4_20
*137 FILLER_0_4_29
*138 FILLER_0_4_41
*139 FILLER_0_4_53
*140 FILLER_0_4_65
*141 FILLER_0_4_7
*142 FILLER_0_4_77
*143 FILLER_0_4_83
*144 FILLER_0_4_85
*145 FILLER_0_5_100
*146 FILLER_0_5_11
*147 FILLER_0_5_23
*148 FILLER_0_5_35
*149 FILLER_0_5_47
*150 FILLER_0_5_55
*151 FILLER_0_5_57
*152 FILLER_0_5_69
*153 FILLER_0_5_81
*154 FILLER_0_5_87
*155 FILLER_0_6_100
*156 FILLER_0_6_26
*157 FILLER_0_6_29
*158 FILLER_0_6_3
*159 FILLER_0_6_41
*160 FILLER_0_6_53
*161 FILLER_0_6_65
*162 FILLER_0_6_77
*163 FILLER_0_6_83
*164 FILLER_0_6_85
*165 FILLER_0_7_21
*166 FILLER_0_7_33
*167 FILLER_0_7_45
*168 FILLER_0_7_53
*169 FILLER_0_7_57
*170 FILLER_0_7_69
*171 FILLER_0_7_7
*172 FILLER_0_7_81
*173 FILLER_0_7_89
*174 FILLER_0_7_98
*175 FILLER_0_8_15
*176 FILLER_0_8_27
*177 FILLER_0_8_29
*178 FILLER_0_8_3
*179 FILLER_0_8_41
*180 FILLER_0_8_53
*181 FILLER_0_8_65
*182 FILLER_0_8_77
*183 FILLER_0_8_83
*184 FILLER_0_8_85
*185 FILLER_0_8_97
*186 FILLER_0_9_19
*187 FILLER_0_9_31
*188 FILLER_0_9_43
*189 FILLER_0_9_55
*190 FILLER_0_9_57
*191 FILLER_0_9_69
*192 FILLER_0_9_7
*193 FILLER_0_9_81
*194 FILLER_0_9_93
*195 PHY_EDGE_ROW_0_Left_14
*196 PHY_EDGE_ROW_0_Right_0
*197 PHY_EDGE_ROW_10_Left_24
*198 PHY_EDGE_ROW_10_Right_10
*199 PHY_EDGE_ROW_11_Left_25
*200 PHY_EDGE_ROW_11_Right_11
*201 PHY_EDGE_ROW_12_Left_26
*202 PHY_EDGE_ROW_12_Right_12
*203 PHY_EDGE_ROW_13_Left_27
*204 PHY_EDGE_ROW_13_Right_13
*205 PHY_EDGE_ROW_1_Left_15
*206 PHY_EDGE_ROW_1_Right_1
*207 PHY_EDGE_ROW_2_Left_16
*208 PHY_EDGE_ROW_2_Right_2
*209 PHY_EDGE_ROW_3_Left_17
*210 PHY_EDGE_ROW_3_Right_3
*211 PHY_EDGE_ROW_4_Left_18
*212 PHY_EDGE_ROW_4_Right_4
*213 PHY_EDGE_ROW_5_Left_19
*214 PHY_EDGE_ROW_5_Right_5
*215 PHY_EDGE_ROW_6_Left_20
*216 PHY_EDGE_ROW_6_Right_6
*217 PHY_EDGE_ROW_7_Left_21
*218 PHY_EDGE_ROW_7_Right_7
*219 PHY_EDGE_ROW_8_Left_22
*220 PHY_EDGE_ROW_8_Right_8
*221 PHY_EDGE_ROW_9_Left_23
*222 PHY_EDGE_ROW_9_Right_9
*223 TAP_TAPCELL_ROW_0_28
*224 TAP_TAPCELL_ROW_0_29
*225 TAP_TAPCELL_ROW_0_30
*226 TAP_TAPCELL_ROW_10_44
*227 TAP_TAPCELL_ROW_10_45
*228 TAP_TAPCELL_ROW_11_46
*229 TAP_TAPCELL_ROW_12_47
*230 TAP_TAPCELL_ROW_12_48
*231 TAP_TAPCELL_ROW_13_49
*232 TAP_TAPCELL_ROW_13_50
*233 TAP_TAPCELL_ROW_13_51
*234 TAP_TAPCELL_ROW_1_31
*235 TAP_TAPCELL_ROW_2_32
*236 TAP_TAPCELL_ROW_2_33
*237 TAP_TAPCELL_ROW_3_34
*238 TAP_TAPCELL_ROW_4_35
*239 TAP_TAPCELL_ROW_4_36
*240 TAP_TAPCELL_ROW_5_37
*241 TAP_TAPCELL_ROW_6_38
*242 TAP_TAPCELL_ROW_6_39
*243 TAP_TAPCELL_ROW_7_40
*244 TAP_TAPCELL_ROW_8_41
*245 TAP_TAPCELL_ROW_8_42
*246 TAP_TAPCELL_ROW_9_43
*247 _00_
*248 _01_
*249 _02_
*250 _03_
*251 _04_
*252 _05_
*253 _06_
*254 _07_
*255 _08_
*256 _09_
*257 _10_
*258 _11_
*259 _12_
*260 _13_
*261 _14_
*262 _15_
*263 fanout21
*264 fanout22
*265 fanout23
*266 fanout24
*267 fanout25
*268 fanout26
*269 fanout27
*270 fanout28
*271 input1
*272 input2
*273 input3
*274 input4
*275 output10
*276 output11
*277 output12
*278 output13
*279 output14
*280 output15
*281 output16
*282 output17
*283 output18
*284 output19
*285 output20
*286 output5
*287 output6
*288 output7
*289 output8
*290 output9

*PORTS
otrip[0] I
otrip[1] I
otrip[2] I
otrip[3] I
otrip_decoded[0] O
otrip_decoded[10] O
otrip_decoded[11] O
otrip_decoded[12] O
otrip_decoded[13] O
otrip_decoded[14] O
otrip_decoded[15] O
otrip_decoded[1] O
otrip_decoded[2] O
otrip_decoded[3] O
otrip_decoded[4] O
otrip_decoded[5] O
otrip_decoded[6] O
otrip_decoded[7] O
otrip_decoded[8] O
otrip_decoded[9] O

*D_NET *3 0.00114907
*CONN
*P otrip[0] I
*I *271:A I *D sky130_fd_sc_hd__clkbuf_1
*CAP
1 otrip[0] 0.000463254
2 *271:A 0.000463254
3 *271:A otrip_decoded[9] 0
4 *271:A *264:A 0.000103605
5 *271:A *272:A 0
6 *271:A *23:10 0.000118953
*RES
1 otrip[0] *271:A 48.7507 
*END

*D_NET *4 0.000897224
*CONN
*P otrip[1] I
*I *272:A I *D sky130_fd_sc_hd__clkbuf_1
*CAP
1 otrip[1] 0.000448612
2 *272:A 0.000448612
3 *272:A *5:17 0
4 *271:A *272:A 0
*RES
1 otrip[1] *272:A 47.3214 
*END

*D_NET *5 0.00110689
*CONN
*P otrip[2] I
*I *273:A I *D sky130_fd_sc_hd__clkbuf_1
*CAP
1 otrip[2] 0.000553444
2 *273:A 0
3 *5:17 0.000553444
4 *5:17 *274:A 0
5 *272:A *5:17 0
*RES
1 otrip[2] *5:17 28.2157 
2 *5:17 *273:A 23 
*END

*D_NET *6 0.00086702
*CONN
*P otrip[3] I
*I *274:A I *D sky130_fd_sc_hd__clkbuf_1
*CAP
1 otrip[3] 0.00043351
2 *274:A 0.00043351
3 *5:17 *274:A 0
*RES
1 otrip[3] *274:A 47.3214 
*END

*D_NET *7 0.00151097
*CONN
*P otrip_decoded[0] O
*I *286:X O *D sky130_fd_sc_hd__buf_2
*CAP
1 otrip_decoded[0] 0.000638985
2 *286:X 0.000638985
3 otrip_decoded[0] otrip_decoded[11] 7.23925e-05
4 otrip_decoded[0] *36:26 0.000160605
*RES
1 *286:X otrip_decoded[0] 48.1952 
*END

*D_NET *8 0.000701584
*CONN
*P otrip_decoded[10] O
*I *287:X O *D sky130_fd_sc_hd__buf_2
*CAP
1 otrip_decoded[10] 0.000303676
2 *287:X 0.000303676
3 otrip_decoded[10] otrip_decoded[5] 3.25681e-05
4 otrip_decoded[10] *47:10 6.16635e-05
*RES
1 *287:X otrip_decoded[10] 48.5734 
*END

*D_NET *9 0.00159009
*CONN
*P otrip_decoded[11] O
*I *288:X O *D sky130_fd_sc_hd__buf_2
*CAP
1 otrip_decoded[11] 0.000666011
2 *288:X 0.000666011
3 otrip_decoded[11] otrip_decoded[15] 0.000126851
4 otrip_decoded[11] *254:A_N 1.41002e-05
5 otrip_decoded[11] *288:A 1.1258e-05
6 otrip_decoded[11] *36:26 3.3469e-05
7 otrip_decoded[0] otrip_decoded[11] 7.23925e-05
*RES
1 *288:X otrip_decoded[11] 49.3966 
*END

*D_NET *10 0.000774937
*CONN
*P otrip_decoded[12] O
*I *289:X O *D sky130_fd_sc_hd__buf_2
*CAP
1 otrip_decoded[12] 7.65184e-05
2 *289:X 0.000269199
3 *10:14 0.000345717
4 otrip_decoded[12] otrip_decoded[5] 2.12457e-05
5 otrip_decoded[12] otrip_decoded[6] 1.5289e-05
6 *10:14 otrip_decoded[6] 1.59585e-05
7 *10:14 *19:10 3.10094e-05
*RES
1 *289:X *10:14 49.9 
2 *10:14 otrip_decoded[12] 0.382667 
*END

*D_NET *11 0.00139187
*CONN
*P otrip_decoded[13] O
*I *290:X O *D sky130_fd_sc_hd__buf_2
*CAP
1 otrip_decoded[13] 0.000502115
2 *290:X 0.000502115
3 otrip_decoded[13] otrip_decoded[15] 0.000178443
4 otrip_decoded[13] otrip_decoded[8] 0.000176847
5 otrip_decoded[13] *50:10 3.23515e-05
*RES
1 *290:X otrip_decoded[13] 48.8995 
*END

*D_NET *12 0.000687039
*CONN
*P otrip_decoded[14] O
*I *275:X O *D sky130_fd_sc_hd__buf_2
*CAP
1 otrip_decoded[14] 0.000267094
2 *275:X 0.000267094
3 otrip_decoded[14] otrip_decoded[7] 8.73764e-05
4 otrip_decoded[14] *24:8 6.54744e-05
*RES
1 *275:X otrip_decoded[14] 48.5734 
*END

*D_NET *13 0.00147107
*CONN
*P otrip_decoded[15] O
*I *276:X O *D sky130_fd_sc_hd__buf_2
*CAP
1 otrip_decoded[15] 0.000563391
2 *276:X 0.000563391
3 otrip_decoded[15] *254:A_N 3.89972e-05
4 otrip_decoded[11] otrip_decoded[15] 0.000126851
5 otrip_decoded[13] otrip_decoded[15] 0.000178443
*RES
1 *276:X otrip_decoded[15] 49.6038 
*END

*D_NET *14 0.00100658
*CONN
*P otrip_decoded[1] O
*I *277:X O *D sky130_fd_sc_hd__buf_2
*CAP
1 otrip_decoded[1] 0.000503292
2 *277:X 0.000503292
3 otrip_decoded[1] otrip_decoded[4] 0
4 otrip_decoded[1] otrip_decoded[9] 0
*RES
1 *277:X otrip_decoded[1] 47.57 
*END

*D_NET *15 0.0010079
*CONN
*P otrip_decoded[2] O
*I *278:X O *D sky130_fd_sc_hd__buf_2
*CAP
1 otrip_decoded[2] 0.000496167
2 *278:X 0.000496167
3 otrip_decoded[2] otrip_decoded[4] 0
4 otrip_decoded[2] *38:35 1.55671e-05
*RES
1 *278:X otrip_decoded[2] 47.57 
*END

*D_NET *16 0.000733353
*CONN
*P otrip_decoded[3] O
*I *279:X O *D sky130_fd_sc_hd__buf_2
*CAP
1 otrip_decoded[3] 0.000326839
2 *279:X 0.000326839
3 otrip_decoded[3] otrip_decoded[6] 3.63362e-05
4 otrip_decoded[3] *28:10 4.334e-05
5 otrip_decoded[3] *38:62 0
*RES
1 *279:X otrip_decoded[3] 48.8608 
*END

*D_NET *17 0.0010079
*CONN
*P otrip_decoded[4] O
*I *280:X O *D sky130_fd_sc_hd__buf_2
*CAP
1 otrip_decoded[4] 0.000496167
2 *280:X 0.000496167
3 otrip_decoded[4] *38:29 1.55671e-05
4 otrip_decoded[1] otrip_decoded[4] 0
5 otrip_decoded[2] otrip_decoded[4] 0
*RES
1 *280:X otrip_decoded[4] 47.57 
*END

*D_NET *18 0.000608442
*CONN
*P otrip_decoded[5] O
*I *281:X O *D sky130_fd_sc_hd__buf_2
*CAP
1 otrip_decoded[5] 0.000277314
2 *281:X 0.000277314
3 otrip_decoded[5] otrip_decoded[6] 0
4 otrip_decoded[10] otrip_decoded[5] 3.25681e-05
5 otrip_decoded[12] otrip_decoded[5] 2.12457e-05
*RES
1 *281:X otrip_decoded[5] 49.6532 
*END

*D_NET *19 0.00104674
*CONN
*P otrip_decoded[6] O
*I *282:X O *D sky130_fd_sc_hd__buf_2
*CAP
1 otrip_decoded[6] 6.30358e-05
2 *282:X 0.000397667
3 *19:10 0.000460703
4 *19:10 *282:A 3.7122e-06
5 *19:10 *289:A 2.30292e-05
6 *19:10 *31:10 0
7 otrip_decoded[12] otrip_decoded[6] 1.5289e-05
8 otrip_decoded[3] otrip_decoded[6] 3.63362e-05
9 otrip_decoded[5] otrip_decoded[6] 0
10 *10:14 otrip_decoded[6] 1.59585e-05
11 *10:14 *19:10 3.10094e-05
*RES
1 *282:X *19:10 43.9346 
2 *19:10 otrip_decoded[6] 8.32853 
*END

*D_NET *20 0.000520116
*CONN
*P otrip_decoded[7] O
*I *283:X O *D sky130_fd_sc_hd__buf_2
*CAP
1 otrip_decoded[7] 0.000169961
2 *283:X 0.000169961
3 otrip_decoded[7] otrip_decoded[8] 7.93622e-05
4 otrip_decoded[7] *24:8 1.34542e-05
5 otrip_decoded[14] otrip_decoded[7] 8.73764e-05
*RES
1 *283:X otrip_decoded[7] 47.1648 
*END

*D_NET *21 0.00130994
*CONN
*P otrip_decoded[8] O
*I *284:X O *D sky130_fd_sc_hd__buf_2
*CAP
1 otrip_decoded[8] 0.000526863
2 *284:X 0.000526863
3 otrip_decoded[13] otrip_decoded[8] 0.000176847
4 otrip_decoded[7] otrip_decoded[8] 7.93622e-05
*RES
1 *284:X otrip_decoded[8] 48.1952 
*END

*D_NET *22 0.000846433
*CONN
*P otrip_decoded[9] O
*I *285:X O *D sky130_fd_sc_hd__buf_2
*CAP
1 otrip_decoded[9] 0.000423217
2 *285:X 0.000423217
3 otrip_decoded[9] *23:10 0
4 otrip_decoded[1] otrip_decoded[9] 0
5 *271:A otrip_decoded[9] 0
*RES
1 *285:X otrip_decoded[9] 47.2386 
*END

*D_NET *23 0.00232153
*CONN
*I *270:A I *D sky130_fd_sc_hd__buf_1
*I *269:A I *D sky130_fd_sc_hd__clkbuf_2
*I *271:X O *D sky130_fd_sc_hd__clkbuf_1
*CAP
1 *270:A 0.000169851
2 *269:A 6.3815e-05
3 *271:X 0.000411931
4 *23:10 0.000645597
5 *269:A *267:A 0.000234534
6 *269:A *38:23 0.000100047
7 *269:A *42:106 0.000413275
8 *270:A *43:12 4.96024e-05
9 *23:10 *264:A 8.06804e-06
10 *23:10 *35:10 8.38427e-05
11 *23:10 *37:10 1.75937e-05
12 *23:10 *43:12 4.41821e-06
13 otrip_decoded[9] *23:10 0
14 *271:A *23:10 0.000118953
*RES
1 *271:X *23:10 43.945 
2 *23:10 *269:A 42.4329 
3 *23:10 *270:A 41.0243 
*END

*D_NET *24 0.000951032
*CONN
*I *275:A I *D sky130_fd_sc_hd__buf_2
*I *261:X O *D sky130_fd_sc_hd__and4b_1
*CAP
1 *275:A 0
2 *261:X 0.000351215
3 *24:8 0.000351215
4 *24:8 *32:10 0.000169674
5 otrip_decoded[14] *24:8 6.54744e-05
6 otrip_decoded[7] *24:8 1.34542e-05
*RES
1 *261:X *24:8 45.8921 
2 *24:8 *275:A 38 
*END

*D_NET *25 0.000657358
*CONN
*I *276:A I *D sky130_fd_sc_hd__buf_2
*I *262:X O *D sky130_fd_sc_hd__and4_1
*CAP
1 *276:A 9.38995e-05
2 *262:X 5.04181e-05
3 *25:8 0.000144318
4 *276:A *50:10 2.93747e-05
5 *25:8 *254:A_N 0.000169674
6 *25:8 *258:B 1.14452e-05
7 *25:8 *41:25 0.000158229
*RES
1 *262:X *25:8 40.2579 
2 *25:8 *276:A 39.595 
*END

*D_NET *26 0.000258877
*CONN
*I *277:A I *D sky130_fd_sc_hd__buf_2
*I *248:Y O *D sky130_fd_sc_hd__nor4b_1
*CAP
1 *277:A 0
2 *248:Y 0.000109555
3 *26:8 0.000109555
4 *26:8 *29:8 0
5 *26:8 *38:29 3.97677e-05
*RES
1 *248:Y *26:8 40.2579 
2 *26:8 *277:A 38 
*END

*D_NET *27 0.000315507
*CONN
*I *278:A I *D sky130_fd_sc_hd__buf_2
*I *249:Y O *D sky130_fd_sc_hd__nor4b_1
*CAP
1 *278:A 0
2 *249:Y 9.48793e-05
3 *27:8 9.48793e-05
4 *27:8 *29:8 0
5 *27:8 *38:35 8.59806e-05
6 *27:8 *38:111 3.97677e-05
*RES
1 *249:Y *27:8 40.2579 
2 *27:8 *278:A 38 
*END

*D_NET *28 0.000976874
*CONN
*I *279:A I *D sky130_fd_sc_hd__buf_2
*I *250:X O *D sky130_fd_sc_hd__and4bb_1
*CAP
1 *279:A 0
2 *250:X 0.000418829
3 *28:10 0.000418829
4 *28:10 *38:62 9.5877e-05
5 *28:10 *40:46 0
6 otrip_decoded[3] *28:10 4.334e-05
*RES
1 *250:X *28:10 43.8621 
2 *28:10 *279:A 38 
*END

*D_NET *29 0.00037417
*CONN
*I *280:A I *D sky130_fd_sc_hd__buf_2
*I *251:Y O *D sky130_fd_sc_hd__nor4b_1
*CAP
1 *280:A 0
2 *251:Y 0.000177461
3 *29:8 0.000177461
4 *29:8 *248:A 4.26047e-06
5 *29:8 *36:36 1.14781e-05
6 *29:8 *38:29 0
7 *29:8 *38:111 0
8 *29:8 *42:97 3.50862e-06
9 *26:8 *29:8 0
10 *27:8 *29:8 0
*RES
1 *251:Y *29:8 40.9621 
2 *29:8 *280:A 38 
*END

*D_NET *30 0.000250025
*CONN
*I *281:A I *D sky130_fd_sc_hd__buf_2
*I *252:X O *D sky130_fd_sc_hd__and4bb_1
*CAP
1 *281:A 0
2 *252:X 0.000125013
3 *30:8 0.000125013
4 *30:8 *36:90 0
*RES
1 *252:X *30:8 40.2579 
2 *30:8 *281:A 38 
*END

*D_NET *31 0.000613408
*CONN
*I *282:A I *D sky130_fd_sc_hd__buf_2
*I *253:X O *D sky130_fd_sc_hd__and4bb_1
*CAP
1 *282:A 7.83505e-05
2 *253:X 0.000221426
3 *31:10 0.000299776
4 *31:10 *49:10 1.01436e-05
5 *19:10 *282:A 3.7122e-06
6 *19:10 *31:10 0
*RES
1 *253:X *31:10 41.3557 
2 *31:10 *282:A 39.0979 
*END

*D_NET *32 0.0011107
*CONN
*I *283:A I *D sky130_fd_sc_hd__buf_2
*I *254:X O *D sky130_fd_sc_hd__and4b_1
*CAP
1 *283:A 5.145e-05
2 *254:X 0.000230873
3 *32:10 0.000282323
4 *32:10 *255:A 0.000272094
5 *32:10 *42:123 1.94693e-05
6 *32:10 *43:50 8.48124e-05
7 *24:8 *32:10 0.000169674
*RES
1 *254:X *32:10 43.6964 
2 *32:10 *283:A 38.6214 
*END

*D_NET *33 0.00030091
*CONN
*I *284:A I *D sky130_fd_sc_hd__buf_2
*I *255:Y O *D sky130_fd_sc_hd__nor4b_1
*CAP
1 *284:A 4.92518e-05
2 *255:Y 6.66531e-05
3 *33:8 0.000115905
4 *284:A *261:A_N 1.14154e-05
5 *284:A *261:C 1.4345e-05
6 *284:A *261:D 0
7 *33:8 *255:C 4.334e-05
*RES
1 *255:Y *33:8 39.2014 
2 *33:8 *284:A 39.2014 
*END

*D_NET *34 0.00527442
*CONN
*I *268:A I *D sky130_fd_sc_hd__buf_1
*I *267:A I *D sky130_fd_sc_hd__clkbuf_2
*I *272:X O *D sky130_fd_sc_hd__clkbuf_1
*CAP
1 *268:A 0
2 *267:A 0.000138738
3 *272:X 0.000176434
4 *34:25 0.000928269
5 *34:8 0.00124344
6 *267:A *256:B_N 0.000144494
7 *267:A *38:23 0.000716924
8 *267:A *42:106 0.000185057
9 *34:8 *37:10 0
10 *34:25 *262:A 0.000179725
11 *34:25 *262:D 5.3304e-05
12 *34:25 *37:23 0.00120597
13 *34:25 *41:6 5.53276e-05
14 *34:25 *41:10 1.21972e-05
15 *269:A *267:A 0.000234534
*RES
1 *272:X *34:8 40.2579 
2 *34:8 *267:A 45.7679 
3 *34:8 *34:25 37.2679 
4 *34:25 *268:A 23 
*END

*D_NET *35 0.000797066
*CONN
*I *285:A I *D sky130_fd_sc_hd__buf_2
*I *256:X O *D sky130_fd_sc_hd__and4bb_1
*CAP
1 *285:A 0.000163343
2 *256:X 0.000103061
3 *35:10 0.000266404
4 *285:A *264:A 8.96073e-05
5 *35:10 *37:10 3.75032e-05
6 *35:10 *40:100 5.3304e-05
7 *23:10 *35:10 8.38427e-05
*RES
1 *256:X *35:10 39.8229 
2 *35:10 *285:A 40.7757 
*END

*D_NET *36 0.0142196
*CONN
*I *247:A I *D sky130_fd_sc_hd__nor4_1
*I *254:A_N I *D sky130_fd_sc_hd__and4b_1
*I *248:A I *D sky130_fd_sc_hd__nor4b_1
*I *249:A I *D sky130_fd_sc_hd__nor4b_1
*I *250:A_N I *D sky130_fd_sc_hd__and4bb_1
*I *259:D I *D sky130_fd_sc_hd__and4bb_1
*I *252:A_N I *D sky130_fd_sc_hd__and4bb_1
*I *257:D I *D sky130_fd_sc_hd__and4bb_1
*I *253:A_N I *D sky130_fd_sc_hd__and4bb_1
*I *251:A I *D sky130_fd_sc_hd__nor4b_1
*I *263:X O *D sky130_fd_sc_hd__clkbuf_2
*CAP
1 *247:A 0
2 *254:A_N 0.000601264
3 *248:A 5.863e-06
4 *249:A 0
5 *250:A_N 0
6 *259:D 0
7 *252:A_N 0
8 *257:D 0
9 *253:A_N 0.000143694
10 *251:A 0
11 *263:X 0.000134414
12 *36:116 0.000127503
13 *36:90 0.000128752
14 *36:82 0.000295443
15 *36:74 0.000456797
16 *36:57 0.000625244
17 *36:53 0.000396299
18 *36:49 0.0008602
19 *36:36 0.000812408
20 *36:26 0.00255758
21 *36:16 0.00295392
22 *36:10 8.54969e-05
23 *36:8 0.000134414
24 *248:A *38:29 1.20476e-05
25 *253:A_N *253:B_N 3.42398e-05
26 *254:A_N *258:B 9.41964e-05
27 *254:A_N *258:D 2.25635e-05
28 *254:A_N *41:36 8.5893e-05
29 *254:A_N *43:30 0
30 *254:A_N *44:10 0
31 *254:A_N *50:10 0.00013832
32 *36:8 *44:10 5.7382e-05
33 *36:16 *247:B 5.5792e-05
34 *36:16 *247:C 3.26241e-05
35 *36:16 *38:6 7.9566e-05
36 *36:26 *247:C 0.000195531
37 *36:26 *38:8 0.000137026
38 *36:36 *38:29 2.11512e-05
39 *36:36 *38:111 6.33771e-05
40 *36:36 *40:8 0.000172432
41 *36:36 *40:14 0.000145171
42 *36:36 *42:97 1.13812e-05
43 *36:49 *38:52 2.95913e-05
44 *36:49 *38:111 2.76401e-05
45 *36:49 *42:97 9.20101e-05
46 *36:53 *38:52 8.06804e-06
47 *36:53 *40:31 6.68986e-05
48 *36:57 *259:B_N 0
49 *36:57 *38:71 0.000219873
50 *36:74 *252:C 5.72975e-05
51 *36:74 *252:D 4.28345e-05
52 *36:74 *257:B_N 1.01436e-05
53 *36:74 *259:A_N 2.79662e-05
54 *36:74 *259:B_N 0
55 *36:74 *38:71 0.00031776
56 *36:74 *38:75 9.61861e-05
57 *36:82 *252:D 0.00017321
58 *36:82 *42:60 3.85802e-05
59 *36:90 *252:D 5.56279e-05
60 *36:90 *257:C 0.000167123
61 *36:116 *249:B 6.33771e-05
62 *36:116 *40:25 0.000325812
63 *36:116 *42:38 0.000289073
64 otrip_decoded[0] *36:26 0.000160605
65 otrip_decoded[11] *254:A_N 1.41002e-05
66 otrip_decoded[11] *36:26 3.3469e-05
67 otrip_decoded[15] *254:A_N 3.89972e-05
68 *25:8 *254:A_N 0.000169674
69 *29:8 *248:A 4.26047e-06
70 *29:8 *36:36 1.14781e-05
71 *30:8 *36:90 0
*RES
1 *263:X *36:8 40.2579 
2 *36:8 *36:10 15 
3 *36:10 *36:16 17.1957 
4 *36:16 *36:26 21.2918 
5 *36:26 *36:36 35.0025 
6 *36:36 *251:A 38 
7 *36:36 *36:49 23.555 
8 *36:49 *36:53 3.02429 
9 *36:53 *36:57 19.0186 
10 *36:57 *253:A_N 40.0507 
11 *36:57 *36:74 21.9186 
12 *36:74 *36:82 33.2521 
13 *36:82 *36:90 32.8793 
14 *36:90 *257:D 23 
15 *36:82 *252:A_N 23 
16 *36:74 *259:D 23 
17 *36:53 *250:A_N 23 
18 *36:49 *36:116 34.7229 
19 *36:116 *249:A 23 
20 *36:26 *248:A 38.3211 
21 *36:16 *254:A_N 49.4136 
22 *36:10 *247:A 23 
*END

*D_NET *37 0.00773824
*CONN
*I *262:A I *D sky130_fd_sc_hd__and4_1
*I *255:D_N I *D sky130_fd_sc_hd__nor4b_1
*I *261:D I *D sky130_fd_sc_hd__and4b_1
*I *260:C I *D sky130_fd_sc_hd__and4b_1
*I *258:D I *D sky130_fd_sc_hd__and4b_1
*I *256:C I *D sky130_fd_sc_hd__and4bb_1
*I *264:X O *D sky130_fd_sc_hd__buf_1
*CAP
1 *262:A 0.000116146
2 *255:D_N 9.83581e-05
3 *261:D 0.000112412
4 *260:C 0
5 *258:D 0.000114317
6 *256:C 0
7 *264:X 0.000201929
8 *37:47 0.000470608
9 *37:38 0.000349058
10 *37:25 0.000203537
11 *37:23 0.00118553
12 *37:10 0.00127131
13 *255:D_N *255:A 6.93553e-05
14 *255:D_N *255:B 0.000132665
15 *258:D *258:B 0.000169027
16 *258:D *39:12 0.000113235
17 *258:D *43:19 3.94208e-05
18 *258:D *43:30 4.22876e-05
19 *261:D *261:A_N 2.18409e-05
20 *261:D *261:B 1.24376e-05
21 *261:D *261:C 3.29102e-05
22 *37:10 *264:A 5.67058e-05
23 *37:10 *43:12 1.13812e-05
24 *37:23 *43:12 9.88765e-05
25 *37:38 *258:B 0.000100337
26 *37:38 *39:12 5.77295e-05
27 *37:38 *39:23 0.000125709
28 *37:38 *41:25 8.62876e-05
29 *37:47 *255:A 5.88388e-05
30 *37:47 *255:B 6.48142e-05
31 *37:47 *39:23 6.38845e-05
32 *37:47 *39:34 0.000230959
33 *37:47 *41:25 7.80035e-05
34 *37:47 *41:36 0.000271139
35 *37:47 *41:47 0.000156777
36 *37:47 *43:50 5.70438e-05
37 *254:A_N *258:D 2.25635e-05
38 *284:A *261:D 0
39 *23:10 *37:10 1.75937e-05
40 *34:8 *37:10 0
41 *34:25 *262:A 0.000179725
42 *34:25 *37:23 0.00120597
43 *35:10 *37:10 3.75032e-05
*RES
1 *264:X *37:10 41.2314 
2 *37:10 *256:C 38 
3 *37:10 *37:23 36.5429 
4 *37:23 *37:25 15 
5 *37:25 *258:D 41.3609 
6 *37:25 *37:38 2.61 
7 *37:38 *260:C 38 
8 *37:38 *37:47 7.54 
9 *37:47 *261:D 40.3666 
10 *37:47 *255:D_N 40.5271 
11 *37:23 *262:A 25.0507 
*END

*D_NET *38 0.0135844
*CONN
*I *247:D I *D sky130_fd_sc_hd__nor4_1
*I *248:C I *D sky130_fd_sc_hd__nor4b_1
*I *251:D_N I *D sky130_fd_sc_hd__nor4b_1
*I *250:B_N I *D sky130_fd_sc_hd__and4bb_1
*I *257:B_N I *D sky130_fd_sc_hd__and4bb_1
*I *259:C I *D sky130_fd_sc_hd__and4bb_1
*I *252:C I *D sky130_fd_sc_hd__and4bb_1
*I *253:D I *D sky130_fd_sc_hd__and4bb_1
*I *249:C I *D sky130_fd_sc_hd__nor4b_1
*I *256:B_N I *D sky130_fd_sc_hd__and4bb_1
*I *265:X O *D sky130_fd_sc_hd__clkbuf_2
*CAP
1 *247:D 0
2 *248:C 0
3 *251:D_N 0
4 *250:B_N 0
5 *257:B_N 0.000277307
6 *259:C 0
7 *252:C 0.000330925
8 *253:D 0
9 *249:C 3.27177e-05
10 *256:B_N 3.60843e-05
11 *265:X 4.95399e-05
12 *38:111 8.50444e-05
13 *38:75 0.000406716
14 *38:71 0.00053507
15 *38:62 0.000186033
16 *38:54 0.000386357
17 *38:52 0.000460312
18 *38:35 0.000684855
19 *38:29 0.000782678
20 *38:23 0.00077757
21 *38:8 0.00052028
22 *38:6 0.000243622
23 *249:C *40:14 2.95423e-05
24 *252:C *252:B_N 5.50106e-05
25 *252:C *252:D 2.49928e-05
26 *252:C *49:10 0.000146041
27 *256:B_N *42:106 0.000187856
28 *257:B_N *257:A_N 0.00016899
29 *257:B_N *257:C 0
30 *257:B_N *42:60 0.000104869
31 *38:6 *247:B 1.47795e-05
32 *38:6 *247:C 7.64059e-06
33 *38:6 *42:106 0.000234542
34 *38:8 *247:C 0.000345168
35 *38:8 *286:A 2.95423e-05
36 *38:8 *42:106 0.00103735
37 *38:23 *247:C 0.000187856
38 *38:23 *40:6 0.000192342
39 *38:23 *40:100 0.000675324
40 *38:23 *42:8 3.26241e-05
41 *38:23 *42:106 1.12268e-05
42 *38:52 *249:B 2.8133e-05
43 *38:52 *40:31 0.000171296
44 *38:52 *42:38 0.000436948
45 *38:54 *40:31 4.17736e-05
46 *38:54 *42:38 5.3304e-05
47 *38:62 *250:D 0.000190627
48 *38:62 *40:31 0.000189669
49 *38:62 *40:37 0.000296369
50 *38:62 *42:38 4.17736e-05
51 *38:71 *42:49 0.000111852
52 *38:71 *42:60 0.000408138
53 otrip_decoded[2] *38:35 1.55671e-05
54 otrip_decoded[3] *38:62 0
55 otrip_decoded[4] *38:29 1.55671e-05
56 *248:A *38:29 1.20476e-05
57 *267:A *256:B_N 0.000144494
58 *267:A *38:23 0.000716924
59 *269:A *38:23 0.000100047
60 *26:8 *38:29 3.97677e-05
61 *27:8 *38:35 8.59806e-05
62 *27:8 *38:111 3.97677e-05
63 *28:10 *38:62 9.5877e-05
64 *29:8 *38:29 0
65 *29:8 *38:111 0
66 *36:16 *38:6 7.9566e-05
67 *36:26 *38:8 0.000137026
68 *36:36 *38:29 2.11512e-05
69 *36:36 *38:111 6.33771e-05
70 *36:49 *38:52 2.95913e-05
71 *36:49 *38:111 2.76401e-05
72 *36:53 *38:52 8.06804e-06
73 *36:57 *38:71 0.000219873
74 *36:74 *252:C 5.72975e-05
75 *36:74 *257:B_N 1.01436e-05
76 *36:74 *38:71 0.00031776
77 *36:74 *38:75 9.61861e-05
*RES
1 *265:X *38:6 25.5271 
2 *38:6 *38:8 11.1029 
3 *38:8 *256:B_N 25.0507 
4 *38:8 *38:23 28.5264 
5 *38:23 *38:29 21.815 
6 *38:29 *38:35 18.48 
7 *38:35 *249:C 38.6214 
8 *38:35 *38:52 25.585 
9 *38:52 *38:54 0.621429 
10 *38:54 *38:62 35.9864 
11 *38:62 *253:D 23 
12 *38:54 *38:71 22.1879 
13 *38:71 *38:75 16.0979 
14 *38:75 *252:C 27.9093 
15 *38:75 *259:C 23 
16 *38:71 *257:B_N 43.6136 
17 *38:52 *250:B_N 23 
18 *38:29 *38:111 32.2579 
19 *38:111 *251:D_N 23 
20 *38:23 *248:C 38 
21 *38:6 *247:D 23 
*END

*D_NET *39 0.00405169
*CONN
*I *258:A_N I *D sky130_fd_sc_hd__and4b_1
*I *254:D I *D sky130_fd_sc_hd__and4b_1
*I *255:C I *D sky130_fd_sc_hd__nor4b_1
*I *261:C I *D sky130_fd_sc_hd__and4b_1
*I *260:B I *D sky130_fd_sc_hd__and4b_1
*I *262:D I *D sky130_fd_sc_hd__and4_1
*I *266:X O *D sky130_fd_sc_hd__buf_1
*CAP
1 *258:A_N 3.73824e-05
2 *254:D 4.08154e-05
3 *255:C 8.08447e-05
4 *261:C 7.68116e-05
5 *260:B 0
6 *262:D 2.77218e-05
7 *266:X 4.4607e-05
8 *39:42 0.000426089
9 *39:34 0.000400181
10 *39:23 0.000170417
11 *39:12 0.000319929
12 *39:6 0.000294713
13 *254:D *254:C 6.17437e-06
14 *254:D *42:123 5.19714e-05
15 *255:C *255:B 0.000188256
16 *255:C *41:47 1.14452e-05
17 *261:C *261:A_N 0.000148159
18 *261:C *261:B 5.3304e-05
19 *262:D *41:10 2.64616e-05
20 *39:6 *266:A 9.98069e-06
21 *39:12 *258:B 7.61229e-06
22 *39:12 *266:A 1.24298e-05
23 *39:12 *43:30 0.000162033
24 *39:23 *43:30 9.28078e-06
25 *39:23 *43:39 0.000151274
26 *39:23 *43:50 2.68751e-05
27 *39:34 *43:50 0.000242404
28 *39:42 *254:C 4.67488e-05
29 *39:42 *41:36 3.92407e-05
30 *39:42 *41:47 0.000149804
31 *39:42 *42:123 5.3304e-05
32 *258:D *39:12 0.000113235
33 *261:D *261:C 3.29102e-05
34 *284:A *261:C 1.4345e-05
35 *33:8 *255:C 4.334e-05
36 *34:25 *262:D 5.3304e-05
37 *37:38 *39:12 5.77295e-05
38 *37:38 *39:23 0.000125709
39 *37:47 *39:23 6.38845e-05
40 *37:47 *39:34 0.000230959
*RES
1 *266:X *39:6 23.6214 
2 *39:6 *39:12 18.8321 
3 *39:12 *262:D 38.6214 
4 *39:12 *39:23 2.61 
5 *39:23 *260:B 38 
6 *39:23 *39:34 18.3143 
7 *39:34 *39:42 19.6814 
8 *39:42 *261:C 40.0714 
9 *39:42 *255:C 40.61 
10 *39:34 *254:D 23.7509 
11 *39:6 *258:A_N 23.8493 
*END

*D_NET *40 0.0103897
*CONN
*I *247:C I *D sky130_fd_sc_hd__nor4_1
*I *256:A_N I *D sky130_fd_sc_hd__and4bb_1
*I *248:B I *D sky130_fd_sc_hd__nor4b_1
*I *251:C I *D sky130_fd_sc_hd__nor4b_1
*I *259:B_N I *D sky130_fd_sc_hd__and4bb_1
*I *250:C I *D sky130_fd_sc_hd__and4bb_1
*I *257:C I *D sky130_fd_sc_hd__and4bb_1
*I *252:B_N I *D sky130_fd_sc_hd__and4bb_1
*I *253:C I *D sky130_fd_sc_hd__and4bb_1
*I *249:D_N I *D sky130_fd_sc_hd__nor4b_1
*I *267:X O *D sky130_fd_sc_hd__clkbuf_2
*CAP
1 *247:C 0.000696878
2 *256:A_N 0
3 *248:B 2.21318e-05
4 *251:C 2.87052e-05
5 *259:B_N 0.000545904
6 *250:C 0
7 *257:C 0.000209832
8 *252:B_N 1.91252e-05
9 *253:C 0
10 *249:D_N 2.80368e-05
11 *267:X 0
12 *40:100 0.00101343
13 *40:46 0.000556292
14 *40:37 0.000500082
15 *40:31 0.000313857
16 *40:25 0.000898732
17 *40:14 0.000519503
18 *40:8 0.000392358
19 *40:6 0.000289271
20 *40:4 0.000499792
21 *247:C *286:A 3.77447e-05
22 *251:C *248:D_N 3.28357e-06
23 *251:C *42:19 2.82742e-05
24 *252:B_N *49:10 5.3304e-05
25 *257:C *257:A_N 0
26 *257:C *49:10 0
27 *259:B_N *259:A_N 5.37348e-06
28 *259:B_N *42:38 4.03099e-05
29 *40:6 *42:8 6.06279e-05
30 *40:8 *42:8 3.32626e-05
31 *40:8 *42:19 2.67084e-05
32 *40:14 *42:19 9.55074e-06
33 *40:14 *42:23 0.000179474
34 *40:25 *42:38 2.6977e-05
35 *40:46 *49:10 0
36 *249:C *40:14 2.95423e-05
37 *252:C *252:B_N 5.50106e-05
38 *257:B_N *257:C 0
39 *28:10 *40:46 0
40 *35:10 *40:100 5.3304e-05
41 *36:16 *247:C 3.26241e-05
42 *36:26 *247:C 0.000195531
43 *36:36 *40:8 0.000172432
44 *36:36 *40:14 0.000145171
45 *36:53 *40:31 6.68986e-05
46 *36:57 *259:B_N 0
47 *36:74 *259:B_N 0
48 *36:90 *257:C 0.000167123
49 *36:116 *40:25 0.000325812
50 *38:6 *247:C 7.64059e-06
51 *38:8 *247:C 0.000345168
52 *38:23 *247:C 0.000187856
53 *38:23 *40:6 0.000192342
54 *38:23 *40:100 0.000675324
55 *38:52 *40:31 0.000171296
56 *38:54 *40:31 4.17736e-05
57 *38:62 *40:31 0.000189669
58 *38:62 *40:37 0.000296369
*RES
1 *267:X *40:4 23 
2 *40:4 *40:6 3.95643 
3 *40:6 *40:8 2.52714 
4 *40:8 *40:14 6.73214 
5 *40:14 *249:D_N 23.8493 
6 *40:14 *40:25 20.075 
7 *40:25 *40:31 19.93 
8 *40:31 *40:37 18.9564 
9 *40:37 *253:C 38 
10 *40:37 *40:46 6.13143 
11 *40:46 *252:B_N 38.6214 
12 *40:46 *257:C 41.9357 
13 *40:31 *250:C 23 
14 *40:25 *259:B_N 47.3421 
15 *40:8 *251:C 24.3879 
16 *40:6 *248:B 23.4971 
17 *40:4 *40:100 7.29143 
18 *40:100 *256:A_N 23 
19 *40:100 *247:C 37.6036 
*END

*D_NET *41 0.00423802
*CONN
*I *262:C I *D sky130_fd_sc_hd__and4_1
*I *255:B I *D sky130_fd_sc_hd__nor4b_1
*I *261:B I *D sky130_fd_sc_hd__and4b_1
*I *254:C I *D sky130_fd_sc_hd__and4b_1
*I *260:A_N I *D sky130_fd_sc_hd__and4b_1
*I *258:B I *D sky130_fd_sc_hd__and4b_1
*I *268:X O *D sky130_fd_sc_hd__buf_1
*CAP
1 *262:C 0
2 *255:B 5.4516e-05
3 *261:B 3.45723e-05
4 *254:C 9.65225e-05
5 *260:A_N 0.000172637
6 *258:B 0.000183457
7 *268:X 0.000159555
8 *41:47 0.000169375
9 *41:36 0.00029347
10 *41:25 0.000347107
11 *41:10 0.000339118
12 *41:6 0.000257406
13 *258:B *288:A 1.9054e-05
14 *258:B *43:30 1.61385e-05
15 *260:A_N *260:D 6.70361e-05
16 *41:36 *50:10 1.02387e-05
17 *254:A_N *258:B 9.41964e-05
18 *254:A_N *41:36 8.5893e-05
19 *254:D *254:C 6.17437e-06
20 *255:C *255:B 0.000188256
21 *255:C *41:47 1.14452e-05
22 *255:D_N *255:B 0.000132665
23 *258:D *258:B 0.000169027
24 *261:C *261:B 5.3304e-05
25 *261:D *261:B 1.24376e-05
26 *262:D *41:10 2.64616e-05
27 *25:8 *258:B 1.14452e-05
28 *25:8 *41:25 0.000158229
29 *34:25 *41:6 5.53276e-05
30 *34:25 *41:10 1.21972e-05
31 *37:38 *258:B 0.000100337
32 *37:38 *41:25 8.62876e-05
33 *37:47 *255:B 6.48142e-05
34 *37:47 *41:25 7.80035e-05
35 *37:47 *41:36 0.000271139
36 *37:47 *41:47 0.000156777
37 *39:12 *258:B 7.61229e-06
38 *39:42 *254:C 4.67488e-05
39 *39:42 *41:36 3.92407e-05
40 *39:42 *41:47 0.000149804
*RES
1 *268:X *41:6 25.0507 
2 *41:6 *41:10 16.0979 
3 *41:10 *258:B 42.9093 
4 *41:10 *41:25 2.25786 
5 *41:25 *260:A_N 40.5271 
6 *41:25 *41:36 3.66643 
7 *41:36 *254:C 39.0979 