* NGSPICE file created from overvoltage_ana.ext - technology: sky130A

.subckt sky130_fd_sc_hvl__lsbufhv2lv_1 A LVPWR VGND VNB VPB VPWR X
X0 a_30_1337# A VPWR VPB sky130_fd_pr__pfet_g5v0d10v5 ad=0.1113 pd=1.37 as=0.1197 ps=1.41 w=0.42 l=0.5
X1 VGND a_30_1337# a_30_207# VNB sky130_fd_pr__nfet_g5v0d10v5 ad=0.178875 pd=1.26 as=0.1197 ps=1.41 w=0.42 l=0.5
X2 VGND a_30_207# a_389_141# VNB sky130_fd_pr__nfet_g5v0d10v5 ad=0.19875 pd=2.03 as=0.105 ps=1.03 w=0.75 l=0.5
X3 VGND a_30_207# a_389_141# VNB sky130_fd_pr__nfet_g5v0d10v5 ad=0.19875 pd=2.03 as=0.19875 ps=2.03 w=0.75 l=0.5
X4 a_389_1337# a_30_1337# VGND VNB sky130_fd_pr__nfet_g5v0d10v5 ad=0.19875 pd=2.03 as=0.105 ps=1.03 w=0.75 l=0.5
X5 VGND a_30_207# a_389_141# VNB sky130_fd_pr__nfet_g5v0d10v5 ad=0.19875 pd=2.03 as=0.19875 ps=2.03 w=0.75 l=0.5
X6 VGND A a_30_1337# VNB sky130_fd_pr__nfet_g5v0d10v5 ad=0.178875 pd=1.26 as=0.1197 ps=1.41 w=0.42 l=0.5
X7 VGND a_30_1337# a_389_1337# VNB sky130_fd_pr__nfet_g5v0d10v5 ad=0.19875 pd=2.03 as=0.19875 ps=2.03 w=0.75 l=0.5
X8 a_389_141# a_30_207# VGND VNB sky130_fd_pr__nfet_g5v0d10v5 ad=0.105 pd=1.03 as=0.178875 ps=1.26 w=0.75 l=0.5
X9 VGND a_30_1337# a_389_1337# VNB sky130_fd_pr__nfet_g5v0d10v5 ad=0.105 pd=1.03 as=0.105 ps=1.03 w=0.75 l=0.5
X10 LVPWR a_389_141# X LVPWR sky130_fd_pr__pfet_01v8_hvt ad=0.1568 pd=1.4 as=0.2968 ps=2.77 w=1.12 l=0.15
X11 VGND a_389_141# X VNB sky130_fd_pr__nfet_01v8 ad=0.1961 pd=2.01 as=0.1961 ps=2.01 w=0.74 l=0.15
X12 a_389_1337# a_30_1337# VGND VNB sky130_fd_pr__nfet_g5v0d10v5 ad=0.105 pd=1.03 as=0.178875 ps=1.26 w=0.75 l=0.5
X13 LVPWR a_389_1337# a_389_141# LVPWR sky130_fd_pr__pfet_01v8_hvt ad=0.2968 pd=2.77 as=0.2968 ps=2.77 w=1.12 l=0.15
X14 a_30_207# a_30_1337# VPWR VPB sky130_fd_pr__pfet_g5v0d10v5 ad=0.1113 pd=1.37 as=0.1197 ps=1.41 w=0.42 l=0.5
X15 a_389_1337# a_389_141# LVPWR LVPWR sky130_fd_pr__pfet_01v8_hvt ad=0.2968 pd=2.77 as=0.1568 ps=1.4 w=1.12 l=0.15
.ends

.subckt sky130_fd_pr__nfet_g5v0d10v5_K8JYEQ a_n3678_n531# a_296_n557# a_950_n531#
+ a_n2374_n557# a_3976_n531# a_2908_n531# a_n1306_n557# a_n3442_n557# a_n2076_n531#
+ a_n3144_n531# a_2610_n557# a_1542_n557# a_n950_n557# a_n1008_n531# a_n4212_n531#
+ a_3442_n531# a_2374_n531# a_1306_n531# a_n652_n531# a_1898_n557# a_n3798_n557# a_2966_n557#
+ a_772_n531# a_118_n557# a_3798_n531# a_n1720_n531# a_n1128_n557# a_n2196_n557# a_n3264_n557#
+ a_1364_n557# a_3500_n557# a_2432_n557# a_n772_n557# a_2196_n531# a_n474_n531# a_n4034_n531#
+ a_3264_n531# a_1128_n531# a_830_n557# a_3856_n557# a_2788_n557# a_n1840_n557# a_594_n531#
+ a_n1542_n531# a_n2610_n531# a_n3086_n557# a_2254_n557# a_1186_n557# a_n594_n557#
+ a_n2018_n557# a_n4154_n557# a_1840_n531# a_3322_n557# a_3086_n531# a_n296_n531#
+ a_n1898_n531# a_n2966_n531# a_4154_n531# a_2018_n531# a_60_n531# a_652_n557# a_3678_n557#
+ a_n1662_n557# a_n2730_n557# a_n1364_n531# a_n60_n557# a_416_n531# a_n2432_n531#
+ a_1662_n531# a_n3500_n531# a_3144_n557# a_2076_n557# a_1008_n557# a_2730_n531# a_n416_n557#
+ a_n2788_n531# a_n3856_n531# a_474_n557# a_n118_n531# a_n1484_n557# a_n2552_n557#
+ a_n3620_n557# a_238_n531# a_n1186_n531# a_n2254_n531# a_1720_n557# a_n3322_n531#
+ a_n4346_n691# a_2552_n531# a_1484_n531# a_n830_n531# a_4034_n557# a_n3976_n557#
+ a_3620_n531# a_n238_n557# a_n2908_n557#
X0 a_n3856_n531# a_n3976_n557# a_n4034_n531# a_n4346_n691# sky130_fd_pr__nfet_g5v0d10v5 ad=0.725 pd=5.29 as=0.725 ps=5.29 w=5 l=0.6
X1 a_2196_n531# a_2076_n557# a_2018_n531# a_n4346_n691# sky130_fd_pr__nfet_g5v0d10v5 ad=0.725 pd=5.29 as=0.725 ps=5.29 w=5 l=0.6
X2 a_n2610_n531# a_n2730_n557# a_n2788_n531# a_n4346_n691# sky130_fd_pr__nfet_g5v0d10v5 ad=0.725 pd=5.29 as=0.725 ps=5.29 w=5 l=0.6
X3 a_n2254_n531# a_n2374_n557# a_n2432_n531# a_n4346_n691# sky130_fd_pr__nfet_g5v0d10v5 ad=0.725 pd=5.29 as=0.725 ps=5.29 w=5 l=0.6
X4 a_n652_n531# a_n772_n557# a_n830_n531# a_n4346_n691# sky130_fd_pr__nfet_g5v0d10v5 ad=0.725 pd=5.29 as=0.725 ps=5.29 w=5 l=0.6
X5 a_2018_n531# a_1898_n557# a_1840_n531# a_n4346_n691# sky130_fd_pr__nfet_g5v0d10v5 ad=0.725 pd=5.29 as=0.725 ps=5.29 w=5 l=0.6
X6 a_n1008_n531# a_n1128_n557# a_n1186_n531# a_n4346_n691# sky130_fd_pr__nfet_g5v0d10v5 ad=0.725 pd=5.29 as=0.725 ps=5.29 w=5 l=0.6
X7 a_594_n531# a_474_n557# a_416_n531# a_n4346_n691# sky130_fd_pr__nfet_g5v0d10v5 ad=0.725 pd=5.29 as=0.725 ps=5.29 w=5 l=0.6
X8 a_3264_n531# a_3144_n557# a_3086_n531# a_n4346_n691# sky130_fd_pr__nfet_g5v0d10v5 ad=0.725 pd=5.29 as=0.725 ps=5.29 w=5 l=0.6
X9 a_n3322_n531# a_n3442_n557# a_n3500_n531# a_n4346_n691# sky130_fd_pr__nfet_g5v0d10v5 ad=0.725 pd=5.29 as=0.725 ps=5.29 w=5 l=0.6
X10 a_60_n531# a_n60_n557# a_n118_n531# a_n4346_n691# sky130_fd_pr__nfet_g5v0d10v5 ad=0.725 pd=5.29 as=0.725 ps=5.29 w=5 l=0.6
X11 a_3086_n531# a_2966_n557# a_2908_n531# a_n4346_n691# sky130_fd_pr__nfet_g5v0d10v5 ad=0.725 pd=5.29 as=0.725 ps=5.29 w=5 l=0.6
X12 a_1484_n531# a_1364_n557# a_1306_n531# a_n4346_n691# sky130_fd_pr__nfet_g5v0d10v5 ad=0.725 pd=5.29 as=0.725 ps=5.29 w=5 l=0.6
X13 a_n1542_n531# a_n1662_n557# a_n1720_n531# a_n4346_n691# sky130_fd_pr__nfet_g5v0d10v5 ad=0.725 pd=5.29 as=0.725 ps=5.29 w=5 l=0.6
X14 a_2552_n531# a_2432_n557# a_2374_n531# a_n4346_n691# sky130_fd_pr__nfet_g5v0d10v5 ad=0.725 pd=5.29 as=0.725 ps=5.29 w=5 l=0.6
X15 a_n3678_n531# a_n3798_n557# a_n3856_n531# a_n4346_n691# sky130_fd_pr__nfet_g5v0d10v5 ad=0.725 pd=5.29 as=0.725 ps=5.29 w=5 l=0.6
X16 a_950_n531# a_830_n557# a_772_n531# a_n4346_n691# sky130_fd_pr__nfet_g5v0d10v5 ad=0.725 pd=5.29 as=0.725 ps=5.29 w=5 l=0.6
X17 a_3620_n531# a_3500_n557# a_3442_n531# a_n4346_n691# sky130_fd_pr__nfet_g5v0d10v5 ad=0.725 pd=5.29 as=0.725 ps=5.29 w=5 l=0.6
X18 a_n2076_n531# a_n2196_n557# a_n2254_n531# a_n4346_n691# sky130_fd_pr__nfet_g5v0d10v5 ad=0.725 pd=5.29 as=0.725 ps=5.29 w=5 l=0.6
X19 a_n830_n531# a_n950_n557# a_n1008_n531# a_n4346_n691# sky130_fd_pr__nfet_g5v0d10v5 ad=0.725 pd=5.29 as=0.725 ps=5.29 w=5 l=0.6
X20 a_n474_n531# a_n594_n557# a_n652_n531# a_n4346_n691# sky130_fd_pr__nfet_g5v0d10v5 ad=0.725 pd=5.29 as=0.725 ps=5.29 w=5 l=0.6
X21 a_1840_n531# a_1720_n557# a_1662_n531# a_n4346_n691# sky130_fd_pr__nfet_g5v0d10v5 ad=0.725 pd=5.29 as=0.725 ps=5.29 w=5 l=0.6
X22 a_n3500_n531# a_n3620_n557# a_n3678_n531# a_n4346_n691# sky130_fd_pr__nfet_g5v0d10v5 ad=0.725 pd=5.29 as=0.725 ps=5.29 w=5 l=0.6
X23 a_416_n531# a_296_n557# a_238_n531# a_n4346_n691# sky130_fd_pr__nfet_g5v0d10v5 ad=0.725 pd=5.29 as=0.725 ps=5.29 w=5 l=0.6
X24 a_n3144_n531# a_n3264_n557# a_n3322_n531# a_n4346_n691# sky130_fd_pr__nfet_g5v0d10v5 ad=0.725 pd=5.29 as=0.725 ps=5.29 w=5 l=0.6
X25 a_2908_n531# a_2788_n557# a_2730_n531# a_n4346_n691# sky130_fd_pr__nfet_g5v0d10v5 ad=0.725 pd=5.29 as=0.725 ps=5.29 w=5 l=0.6
X26 a_n1898_n531# a_n2018_n557# a_n2076_n531# a_n4346_n691# sky130_fd_pr__nfet_g5v0d10v5 ad=0.725 pd=5.29 as=0.725 ps=5.29 w=5 l=0.6
X27 a_4154_n531# a_4034_n557# a_3976_n531# a_n4346_n691# sky130_fd_pr__nfet_g5v0d10v5 ad=1.45 pd=10.58 as=0.725 ps=5.29 w=5 l=0.6
X28 a_n296_n531# a_n416_n557# a_n474_n531# a_n4346_n691# sky130_fd_pr__nfet_g5v0d10v5 ad=0.725 pd=5.29 as=0.725 ps=5.29 w=5 l=0.6
X29 a_1306_n531# a_1186_n557# a_1128_n531# a_n4346_n691# sky130_fd_pr__nfet_g5v0d10v5 ad=0.725 pd=5.29 as=0.725 ps=5.29 w=5 l=0.6
X30 a_3976_n531# a_3856_n557# a_3798_n531# a_n4346_n691# sky130_fd_pr__nfet_g5v0d10v5 ad=0.725 pd=5.29 as=0.725 ps=5.29 w=5 l=0.6
X31 a_n1720_n531# a_n1840_n557# a_n1898_n531# a_n4346_n691# sky130_fd_pr__nfet_g5v0d10v5 ad=0.725 pd=5.29 as=0.725 ps=5.29 w=5 l=0.6
X32 a_n1364_n531# a_n1484_n557# a_n1542_n531# a_n4346_n691# sky130_fd_pr__nfet_g5v0d10v5 ad=0.725 pd=5.29 as=0.725 ps=5.29 w=5 l=0.6
X33 a_238_n531# a_118_n557# a_60_n531# a_n4346_n691# sky130_fd_pr__nfet_g5v0d10v5 ad=0.725 pd=5.29 as=0.725 ps=5.29 w=5 l=0.6
X34 a_2374_n531# a_2254_n557# a_2196_n531# a_n4346_n691# sky130_fd_pr__nfet_g5v0d10v5 ad=0.725 pd=5.29 as=0.725 ps=5.29 w=5 l=0.6
X35 a_n2788_n531# a_n2908_n557# a_n2966_n531# a_n4346_n691# sky130_fd_pr__nfet_g5v0d10v5 ad=0.725 pd=5.29 as=0.725 ps=5.29 w=5 l=0.6
X36 a_n2432_n531# a_n2552_n557# a_n2610_n531# a_n4346_n691# sky130_fd_pr__nfet_g5v0d10v5 ad=0.725 pd=5.29 as=0.725 ps=5.29 w=5 l=0.6
X37 a_1128_n531# a_1008_n557# a_950_n531# a_n4346_n691# sky130_fd_pr__nfet_g5v0d10v5 ad=0.725 pd=5.29 as=0.725 ps=5.29 w=5 l=0.6
X38 a_n1186_n531# a_n1306_n557# a_n1364_n531# a_n4346_n691# sky130_fd_pr__nfet_g5v0d10v5 ad=0.725 pd=5.29 as=0.725 ps=5.29 w=5 l=0.6
X39 a_772_n531# a_652_n557# a_594_n531# a_n4346_n691# sky130_fd_pr__nfet_g5v0d10v5 ad=0.725 pd=5.29 as=0.725 ps=5.29 w=5 l=0.6
X40 a_3442_n531# a_3322_n557# a_3264_n531# a_n4346_n691# sky130_fd_pr__nfet_g5v0d10v5 ad=0.725 pd=5.29 as=0.725 ps=5.29 w=5 l=0.6
X41 a_1662_n531# a_1542_n557# a_1484_n531# a_n4346_n691# sky130_fd_pr__nfet_g5v0d10v5 ad=0.725 pd=5.29 as=0.725 ps=5.29 w=5 l=0.6
X42 a_n2966_n531# a_n3086_n557# a_n3144_n531# a_n4346_n691# sky130_fd_pr__nfet_g5v0d10v5 ad=0.725 pd=5.29 as=0.725 ps=5.29 w=5 l=0.6
X43 a_2730_n531# a_2610_n557# a_2552_n531# a_n4346_n691# sky130_fd_pr__nfet_g5v0d10v5 ad=0.725 pd=5.29 as=0.725 ps=5.29 w=5 l=0.6
X44 a_n4034_n531# a_n4154_n557# a_n4212_n531# a_n4346_n691# sky130_fd_pr__nfet_g5v0d10v5 ad=0.725 pd=5.29 as=1.45 ps=10.58 w=5 l=0.6
X45 a_n118_n531# a_n238_n557# a_n296_n531# a_n4346_n691# sky130_fd_pr__nfet_g5v0d10v5 ad=0.725 pd=5.29 as=0.725 ps=5.29 w=5 l=0.6
X46 a_3798_n531# a_3678_n557# a_3620_n531# a_n4346_n691# sky130_fd_pr__nfet_g5v0d10v5 ad=0.725 pd=5.29 as=0.725 ps=5.29 w=5 l=0.6
.ends

.subckt sky130_fd_pr__pfet_g5v0d10v5_4Z8MHY a_652_n562# a_n1186_n536# a_238_n536#
+ a_n1662_n562# a_3678_n562# a_n2254_n536# a_n2730_n562# a_n3322_n536# a_n60_n562#
+ a_1484_n536# a_2552_n536# a_n830_n536# a_3620_n536# w_n4412_n762# a_2076_n562# a_3144_n562#
+ a_1008_n562# a_n3678_n536# a_n416_n562# a_950_n536# a_474_n562# a_3976_n536# a_2908_n536#
+ a_n1484_n562# a_n2076_n536# a_n2552_n562# a_n3144_n536# a_n1008_n536# a_n3620_n562#
+ a_n4212_n536# a_1720_n562# a_2374_n536# a_n652_n536# a_1306_n536# a_3442_n536# a_n3976_n562#
+ a_4034_n562# a_n238_n562# a_772_n536# a_n2908_n562# a_296_n562# a_3798_n536# a_n1720_n536#
+ a_n2374_n562# a_n3442_n562# a_n1306_n562# a_n4034_n536# a_1542_n562# a_2196_n536#
+ a_n474_n536# a_2610_n562# a_n950_n562# a_1128_n536# a_3264_n536# a_n3798_n562# a_594_n536#
+ a_1898_n562# a_2966_n562# a_n1542_n536# a_n2610_n536# a_118_n562# a_n2196_n562#
+ a_1840_n536# a_n3264_n562# a_n1128_n562# a_1364_n562# a_n1898_n536# a_n296_n536#
+ a_2432_n562# a_n2966_n536# a_n772_n562# a_3086_n536# a_3500_n562# a_2018_n536# a_4154_n536#
+ a_60_n536# a_830_n562# a_2788_n562# a_n1364_n536# a_416_n536# a_n1840_n562# a_3856_n562#
+ a_n2432_n536# a_n3500_n536# a_1662_n536# a_n3086_n562# a_2730_n536# a_n4154_n562#
+ a_n2018_n562# a_1186_n562# a_2254_n562# a_n2788_n536# a_n594_n562# a_3322_n562#
+ a_n3856_n536# a_n118_n536#
X0 a_2552_n536# a_2432_n562# a_2374_n536# w_n4412_n762# sky130_fd_pr__pfet_g5v0d10v5 ad=0.725 pd=5.29 as=0.725 ps=5.29 w=5 l=0.6
X1 a_950_n536# a_830_n562# a_772_n536# w_n4412_n762# sky130_fd_pr__pfet_g5v0d10v5 ad=0.725 pd=5.29 as=0.725 ps=5.29 w=5 l=0.6
X2 a_3620_n536# a_3500_n562# a_3442_n536# w_n4412_n762# sky130_fd_pr__pfet_g5v0d10v5 ad=0.725 pd=5.29 as=0.725 ps=5.29 w=5 l=0.6
X3 a_n3678_n536# a_n3798_n562# a_n3856_n536# w_n4412_n762# sky130_fd_pr__pfet_g5v0d10v5 ad=0.725 pd=5.29 as=0.725 ps=5.29 w=5 l=0.6
X4 a_n830_n536# a_n950_n562# a_n1008_n536# w_n4412_n762# sky130_fd_pr__pfet_g5v0d10v5 ad=0.725 pd=5.29 as=0.725 ps=5.29 w=5 l=0.6
X5 a_n2076_n536# a_n2196_n562# a_n2254_n536# w_n4412_n762# sky130_fd_pr__pfet_g5v0d10v5 ad=0.725 pd=5.29 as=0.725 ps=5.29 w=5 l=0.6
X6 a_n474_n536# a_n594_n562# a_n652_n536# w_n4412_n762# sky130_fd_pr__pfet_g5v0d10v5 ad=0.725 pd=5.29 as=0.725 ps=5.29 w=5 l=0.6
X7 a_1840_n536# a_1720_n562# a_1662_n536# w_n4412_n762# sky130_fd_pr__pfet_g5v0d10v5 ad=0.725 pd=5.29 as=0.725 ps=5.29 w=5 l=0.6
X8 a_416_n536# a_296_n562# a_238_n536# w_n4412_n762# sky130_fd_pr__pfet_g5v0d10v5 ad=0.725 pd=5.29 as=0.725 ps=5.29 w=5 l=0.6
X9 a_n3500_n536# a_n3620_n562# a_n3678_n536# w_n4412_n762# sky130_fd_pr__pfet_g5v0d10v5 ad=0.725 pd=5.29 as=0.725 ps=5.29 w=5 l=0.6
X10 a_n3144_n536# a_n3264_n562# a_n3322_n536# w_n4412_n762# sky130_fd_pr__pfet_g5v0d10v5 ad=0.725 pd=5.29 as=0.725 ps=5.29 w=5 l=0.6
X11 a_2908_n536# a_2788_n562# a_2730_n536# w_n4412_n762# sky130_fd_pr__pfet_g5v0d10v5 ad=0.725 pd=5.29 as=0.725 ps=5.29 w=5 l=0.6
X12 a_4154_n536# a_4034_n562# a_3976_n536# w_n4412_n762# sky130_fd_pr__pfet_g5v0d10v5 ad=1.45 pd=10.58 as=0.725 ps=5.29 w=5 l=0.6
X13 a_n1898_n536# a_n2018_n562# a_n2076_n536# w_n4412_n762# sky130_fd_pr__pfet_g5v0d10v5 ad=0.725 pd=5.29 as=0.725 ps=5.29 w=5 l=0.6
X14 a_n296_n536# a_n416_n562# a_n474_n536# w_n4412_n762# sky130_fd_pr__pfet_g5v0d10v5 ad=0.725 pd=5.29 as=0.725 ps=5.29 w=5 l=0.6
X15 a_1306_n536# a_1186_n562# a_1128_n536# w_n4412_n762# sky130_fd_pr__pfet_g5v0d10v5 ad=0.725 pd=5.29 as=0.725 ps=5.29 w=5 l=0.6
X16 a_n1720_n536# a_n1840_n562# a_n1898_n536# w_n4412_n762# sky130_fd_pr__pfet_g5v0d10v5 ad=0.725 pd=5.29 as=0.725 ps=5.29 w=5 l=0.6
X17 a_n1364_n536# a_n1484_n562# a_n1542_n536# w_n4412_n762# sky130_fd_pr__pfet_g5v0d10v5 ad=0.725 pd=5.29 as=0.725 ps=5.29 w=5 l=0.6
X18 a_238_n536# a_118_n562# a_60_n536# w_n4412_n762# sky130_fd_pr__pfet_g5v0d10v5 ad=0.725 pd=5.29 as=0.725 ps=5.29 w=5 l=0.6
X19 a_3976_n536# a_3856_n562# a_3798_n536# w_n4412_n762# sky130_fd_pr__pfet_g5v0d10v5 ad=0.725 pd=5.29 as=0.725 ps=5.29 w=5 l=0.6
X20 a_n2788_n536# a_n2908_n562# a_n2966_n536# w_n4412_n762# sky130_fd_pr__pfet_g5v0d10v5 ad=0.725 pd=5.29 as=0.725 ps=5.29 w=5 l=0.6
X21 a_2374_n536# a_2254_n562# a_2196_n536# w_n4412_n762# sky130_fd_pr__pfet_g5v0d10v5 ad=0.725 pd=5.29 as=0.725 ps=5.29 w=5 l=0.6
X22 a_n2432_n536# a_n2552_n562# a_n2610_n536# w_n4412_n762# sky130_fd_pr__pfet_g5v0d10v5 ad=0.725 pd=5.29 as=0.725 ps=5.29 w=5 l=0.6
X23 a_1128_n536# a_1008_n562# a_950_n536# w_n4412_n762# sky130_fd_pr__pfet_g5v0d10v5 ad=0.725 pd=5.29 as=0.725 ps=5.29 w=5 l=0.6
X24 a_n1186_n536# a_n1306_n562# a_n1364_n536# w_n4412_n762# sky130_fd_pr__pfet_g5v0d10v5 ad=0.725 pd=5.29 as=0.725 ps=5.29 w=5 l=0.6
X25 a_772_n536# a_652_n562# a_594_n536# w_n4412_n762# sky130_fd_pr__pfet_g5v0d10v5 ad=0.725 pd=5.29 as=0.725 ps=5.29 w=5 l=0.6
X26 a_3442_n536# a_3322_n562# a_3264_n536# w_n4412_n762# sky130_fd_pr__pfet_g5v0d10v5 ad=0.725 pd=5.29 as=0.725 ps=5.29 w=5 l=0.6
X27 a_1662_n536# a_1542_n562# a_1484_n536# w_n4412_n762# sky130_fd_pr__pfet_g5v0d10v5 ad=0.725 pd=5.29 as=0.725 ps=5.29 w=5 l=0.6
X28 a_n2966_n536# a_n3086_n562# a_n3144_n536# w_n4412_n762# sky130_fd_pr__pfet_g5v0d10v5 ad=0.725 pd=5.29 as=0.725 ps=5.29 w=5 l=0.6
X29 a_2730_n536# a_2610_n562# a_2552_n536# w_n4412_n762# sky130_fd_pr__pfet_g5v0d10v5 ad=0.725 pd=5.29 as=0.725 ps=5.29 w=5 l=0.6
X30 a_n4034_n536# a_n4154_n562# a_n4212_n536# w_n4412_n762# sky130_fd_pr__pfet_g5v0d10v5 ad=0.725 pd=5.29 as=1.45 ps=10.58 w=5 l=0.6
X31 a_n118_n536# a_n238_n562# a_n296_n536# w_n4412_n762# sky130_fd_pr__pfet_g5v0d10v5 ad=0.725 pd=5.29 as=0.725 ps=5.29 w=5 l=0.6
X32 a_3798_n536# a_3678_n562# a_3620_n536# w_n4412_n762# sky130_fd_pr__pfet_g5v0d10v5 ad=0.725 pd=5.29 as=0.725 ps=5.29 w=5 l=0.6
X33 a_n3856_n536# a_n3976_n562# a_n4034_n536# w_n4412_n762# sky130_fd_pr__pfet_g5v0d10v5 ad=0.725 pd=5.29 as=0.725 ps=5.29 w=5 l=0.6
X34 a_n2610_n536# a_n2730_n562# a_n2788_n536# w_n4412_n762# sky130_fd_pr__pfet_g5v0d10v5 ad=0.725 pd=5.29 as=0.725 ps=5.29 w=5 l=0.6
X35 a_2196_n536# a_2076_n562# a_2018_n536# w_n4412_n762# sky130_fd_pr__pfet_g5v0d10v5 ad=0.725 pd=5.29 as=0.725 ps=5.29 w=5 l=0.6
X36 a_n2254_n536# a_n2374_n562# a_n2432_n536# w_n4412_n762# sky130_fd_pr__pfet_g5v0d10v5 ad=0.725 pd=5.29 as=0.725 ps=5.29 w=5 l=0.6
X37 a_n652_n536# a_n772_n562# a_n830_n536# w_n4412_n762# sky130_fd_pr__pfet_g5v0d10v5 ad=0.725 pd=5.29 as=0.725 ps=5.29 w=5 l=0.6
X38 a_2018_n536# a_1898_n562# a_1840_n536# w_n4412_n762# sky130_fd_pr__pfet_g5v0d10v5 ad=0.725 pd=5.29 as=0.725 ps=5.29 w=5 l=0.6
X39 a_n1008_n536# a_n1128_n562# a_n1186_n536# w_n4412_n762# sky130_fd_pr__pfet_g5v0d10v5 ad=0.725 pd=5.29 as=0.725 ps=5.29 w=5 l=0.6
X40 a_594_n536# a_474_n562# a_416_n536# w_n4412_n762# sky130_fd_pr__pfet_g5v0d10v5 ad=0.725 pd=5.29 as=0.725 ps=5.29 w=5 l=0.6
X41 a_3264_n536# a_3144_n562# a_3086_n536# w_n4412_n762# sky130_fd_pr__pfet_g5v0d10v5 ad=0.725 pd=5.29 as=0.725 ps=5.29 w=5 l=0.6
X42 a_n3322_n536# a_n3442_n562# a_n3500_n536# w_n4412_n762# sky130_fd_pr__pfet_g5v0d10v5 ad=0.725 pd=5.29 as=0.725 ps=5.29 w=5 l=0.6
X43 a_60_n536# a_n60_n562# a_n118_n536# w_n4412_n762# sky130_fd_pr__pfet_g5v0d10v5 ad=0.725 pd=5.29 as=0.725 ps=5.29 w=5 l=0.6
X44 a_3086_n536# a_2966_n562# a_2908_n536# w_n4412_n762# sky130_fd_pr__pfet_g5v0d10v5 ad=0.725 pd=5.29 as=0.725 ps=5.29 w=5 l=0.6
X45 a_1484_n536# a_1364_n562# a_1306_n536# w_n4412_n762# sky130_fd_pr__pfet_g5v0d10v5 ad=0.725 pd=5.29 as=0.725 ps=5.29 w=5 l=0.6
X46 a_n1542_n536# a_n1662_n562# a_n1720_n536# w_n4412_n762# sky130_fd_pr__pfet_g5v0d10v5 ad=0.725 pd=5.29 as=0.725 ps=5.29 w=5 l=0.6
.ends

.subckt sky130_fd_pr__pfet_g5v0d10v5_WY4TLZ a_n919_n536# a_207_n562# a_n1217_n562#
+ w_n1653_n762# a_n385_n536# a_1039_n536# a_n861_n562# a_n1453_n536# a_505_n536# a_1275_n562#
+ a_29_n562# a_n1039_n562# a_n683_n562# a_n207_n536# a_741_n562# a_327_n536# a_n1275_n536#
+ a_1097_n562# a_n505_n562# a_n29_n536# a_n1097_n536# a_563_n562# a_149_n536# a_1395_n536#
+ a_n741_n536# a_919_n562# a_861_n536# a_n327_n562# a_385_n562# a_n1395_n562# a_1217_n536#
+ a_n563_n536# a_683_n536# a_n149_n562#
X0 a_n207_n536# a_n327_n562# a_n385_n536# w_n1653_n762# sky130_fd_pr__pfet_g5v0d10v5 ad=0.725 pd=5.29 as=0.725 ps=5.29 w=5 l=0.6
X1 a_1217_n536# a_1097_n562# a_1039_n536# w_n1653_n762# sky130_fd_pr__pfet_g5v0d10v5 ad=0.725 pd=5.29 as=0.725 ps=5.29 w=5 l=0.6
X2 a_n1275_n536# a_n1395_n562# a_n1453_n536# w_n1653_n762# sky130_fd_pr__pfet_g5v0d10v5 ad=0.725 pd=5.29 as=1.45 ps=10.58 w=5 l=0.6
X3 a_n741_n536# a_n861_n562# a_n919_n536# w_n1653_n762# sky130_fd_pr__pfet_g5v0d10v5 ad=0.725 pd=5.29 as=0.725 ps=5.29 w=5 l=0.6
X4 a_n1097_n536# a_n1217_n562# a_n1275_n536# w_n1653_n762# sky130_fd_pr__pfet_g5v0d10v5 ad=0.725 pd=5.29 as=0.725 ps=5.29 w=5 l=0.6
X5 a_683_n536# a_563_n562# a_505_n536# w_n1653_n762# sky130_fd_pr__pfet_g5v0d10v5 ad=0.725 pd=5.29 as=0.725 ps=5.29 w=5 l=0.6
X6 a_1039_n536# a_919_n562# a_861_n536# w_n1653_n762# sky130_fd_pr__pfet_g5v0d10v5 ad=0.725 pd=5.29 as=0.725 ps=5.29 w=5 l=0.6
X7 a_n29_n536# a_n149_n562# a_n207_n536# w_n1653_n762# sky130_fd_pr__pfet_g5v0d10v5 ad=0.725 pd=5.29 as=0.725 ps=5.29 w=5 l=0.6
X8 a_n563_n536# a_n683_n562# a_n741_n536# w_n1653_n762# sky130_fd_pr__pfet_g5v0d10v5 ad=0.725 pd=5.29 as=0.725 ps=5.29 w=5 l=0.6
X9 a_n919_n536# a_n1039_n562# a_n1097_n536# w_n1653_n762# sky130_fd_pr__pfet_g5v0d10v5 ad=0.725 pd=5.29 as=0.725 ps=5.29 w=5 l=0.6
X10 a_505_n536# a_385_n562# a_327_n536# w_n1653_n762# sky130_fd_pr__pfet_g5v0d10v5 ad=0.725 pd=5.29 as=0.725 ps=5.29 w=5 l=0.6
X11 a_n385_n536# a_n505_n562# a_n563_n536# w_n1653_n762# sky130_fd_pr__pfet_g5v0d10v5 ad=0.725 pd=5.29 as=0.725 ps=5.29 w=5 l=0.6
X12 a_1395_n536# a_1275_n562# a_1217_n536# w_n1653_n762# sky130_fd_pr__pfet_g5v0d10v5 ad=1.45 pd=10.58 as=0.725 ps=5.29 w=5 l=0.6
X13 a_327_n536# a_207_n562# a_149_n536# w_n1653_n762# sky130_fd_pr__pfet_g5v0d10v5 ad=0.725 pd=5.29 as=0.725 ps=5.29 w=5 l=0.6
X14 a_149_n536# a_29_n562# a_n29_n536# w_n1653_n762# sky130_fd_pr__pfet_g5v0d10v5 ad=0.725 pd=5.29 as=0.725 ps=5.29 w=5 l=0.6
X15 a_861_n536# a_741_n562# a_683_n536# w_n1653_n762# sky130_fd_pr__pfet_g5v0d10v5 ad=0.725 pd=5.29 as=0.725 ps=5.29 w=5 l=0.6
.ends

.subckt sky130_fd_pr__res_xhigh_po_1p41_CZUCEE a_4017_n2176# a_n9969_1744# a_8553_1744#
+ a_n6567_1744# a_n17151_1744# a_5151_1744# a_n3165_1744# a_16869_1744# a_13467_1744#
+ a_10065_1744# a_19137_n2176# a_17247_1744# a_2127_n2176# a_237_1744# a_n519_1744#
+ a_19515_n2176# a_n16017_n2176# a_2505_n2176# a_n9213_n2176# a_17247_n2176# a_n10725_1744#
+ a_n5811_1744# a_n9591_1744# a_n17907_1744# a_8175_n2176# a_9687_1744# a_5907_1744#
+ a_n14505_1744# a_n18285_1744# a_17625_n2176# a_6285_1744# a_2505_1744# a_n11103_1744#
+ a_n14127_n2176# a_12711_1744# a_16491_1744# a_n4299_1744# a_n7323_n2176# a_15357_n2176#
+ a_8553_n2176# a_11199_1744# a_n5055_n2176# a_n7701_n2176# a_n8079_1744# a_n14505_n2176#
+ a_13089_n2176# a_15735_n2176# a_6285_n2176# a_n141_n2176# a_n519_n2176# a_n141_1744#
+ a_n5433_n2176# a_n12237_n2176# a_8931_n2176# a_13467_n2176# a_6663_n2176# a_n3165_n2176#
+ a_n12615_n2176# a_11199_n2176# a_n5811_n2176# a_n11859_1744# a_n19927_n2306# a_13845_n2176#
+ a_4395_n2176# a_8931_1744# a_n3543_n2176# a_n10347_n2176# a_n6945_1744# a_n3543_1744#
+ a_n15639_1744# a_11577_n2176# a_3639_1744# a_n12237_1744# a_n18285_n2176# a_13845_1744#
+ a_4773_n2176# a_n1275_n2176# a_10443_1744# a_n10725_n2176# a_n897_1744# a_n3921_n2176#
+ a_n7323_1744# a_n19419_1744# a_11955_n2176# a_7419_1744# a_615_1744# a_n16017_1744#
+ a_17625_1744# a_4017_1744# a_n1653_n2176# a_n18663_n2176# a_14223_1744# a_n9591_n2176#
+ a_n16395_n2176# a_2883_n2176# a_n9969_n2176# a_18003_1744# a_2883_1744# a_n14883_1744#
+ a_n11481_1744# a_n16773_n2176# a_18003_n2176# a_n18663_1744# a_6663_1744# a_n4677_1744#
+ a_n15261_1744# a_3261_1744# a_n1275_1744# a_9309_n2176# a_14979_1744# a_11577_1744#
+ a_n14883_n2176# a_n19041_1744# a_16113_n2176# a_7041_1744# a_n897_n2176# a_n8457_1744#
+ a_n5055_1744# a_18759_1744# a_15357_1744# a_7419_n2176# a_7041_n2176# a_237_n2176#
+ a_n12993_n2176# a_19137_1744# a_14223_n2176# a_615_n2176# a_n3921_1744# a_14601_n2176#
+ a_5529_n2176# a_5151_n2176# a_n12615_1744# a_n19797_1744# a_7797_1744# a_993_1744#
+ a_n11103_n2176# a_n16395_1744# a_10821_1744# a_4395_1744# a_12333_n2176# a_n7701_1744#
+ a_n19041_n2176# a_n19419_n2176# a_5907_n2176# a_n2031_n2176# a_n2409_n2176# a_8175_1744#
+ a_10065_n2176# a_14601_1744# a_n2409_1744# a_n6189_1744# a_18381_1744# a_3261_n2176#
+ a_12711_n2176# a_3639_n2176# a_13089_1744# a_10443_n2176# a_n8079_n2176# a_n17151_n2176#
+ a_n17529_n2176# a_18381_n2176# a_18759_n2176# a_1749_n2176# a_1371_n2176# a_n8457_n2176#
+ a_10821_n2176# a_n17907_n2176# a_n6189_n2176# a_9687_n2176# a_n1653_1744# a_n13749_1744#
+ a_1749_1744# a_n8835_n2176# a_n10347_1744# a_n15261_n2176# a_n15639_n2176# a_11955_1744#
+ a_16491_n2176# a_16869_n2176# a_n8835_1744# a_n5433_1744# a_n6567_n2176# a_5529_1744#
+ a_n2031_1744# a_n17529_1744# a_15735_1744# a_2127_1744# a_n14127_1744# a_12333_1744#
+ a_n4299_n2176# a_7797_n2176# a_n6945_n2176# a_n13371_n2176# a_n13749_n2176# a_n9213_1744#
+ a_9309_1744# a_14979_n2176# a_19515_1744# a_993_n2176# a_16113_1744# a_n4677_n2176#
+ a_n12993_1744# a_n11481_n2176# a_n11859_n2176# a_n16773_1744# a_4773_1744# a_n13371_1744#
+ a_1371_1744# a_n2787_1744# a_n2787_n2176# a_n19797_n2176#
X0 a_n19419_1744# a_n19419_n2176# a_n19927_n2306# sky130_fd_pr__res_xhigh_po_1p41 l=17.6
X1 a_n19041_1744# a_n19041_n2176# a_n19927_n2306# sky130_fd_pr__res_xhigh_po_1p41 l=17.6
X2 a_993_1744# a_993_n2176# a_n19927_n2306# sky130_fd_pr__res_xhigh_po_1p41 l=17.6
X3 a_n16017_1744# a_n16017_n2176# a_n19927_n2306# sky130_fd_pr__res_xhigh_po_1p41 l=17.6
X4 a_9687_1744# a_9687_n2176# a_n19927_n2306# sky130_fd_pr__res_xhigh_po_1p41 l=17.6
X5 a_6285_1744# a_6285_n2176# a_n19927_n2306# sky130_fd_pr__res_xhigh_po_1p41 l=17.6
X6 a_18759_1744# a_18759_n2176# a_n19927_n2306# sky130_fd_pr__res_xhigh_po_1p41 l=17.6
X7 a_8553_1744# a_8553_n2176# a_n19927_n2306# sky130_fd_pr__res_xhigh_po_1p41 l=17.6
X8 a_5529_1744# a_5529_n2176# a_n19927_n2306# sky130_fd_pr__res_xhigh_po_1p41 l=17.6
X9 a_13089_1744# a_13089_n2176# a_n19927_n2306# sky130_fd_pr__res_xhigh_po_1p41 l=17.6
X10 a_n16773_1744# a_n16773_n2176# a_n19927_n2306# sky130_fd_pr__res_xhigh_po_1p41 l=17.6
X11 a_18381_1744# a_18381_n2176# a_n19927_n2306# sky130_fd_pr__res_xhigh_po_1p41 l=17.6
X12 a_n13749_1744# a_n13749_n2176# a_n19927_n2306# sky130_fd_pr__res_xhigh_po_1p41 l=17.6
X13 a_15357_1744# a_15357_n2176# a_n19927_n2306# sky130_fd_pr__res_xhigh_po_1p41 l=17.6
X14 a_5151_1744# a_5151_n2176# a_n19927_n2306# sky130_fd_pr__res_xhigh_po_1p41 l=17.6
X15 a_2127_1744# a_2127_n2176# a_n19927_n2306# sky130_fd_pr__res_xhigh_po_1p41 l=17.6
X16 a_17625_1744# a_17625_n2176# a_n19927_n2306# sky130_fd_pr__res_xhigh_po_1p41 l=17.6
X17 a_n9969_1744# a_n9969_n2176# a_n19927_n2306# sky130_fd_pr__res_xhigh_po_1p41 l=17.6
X18 a_n4299_1744# a_n4299_n2176# a_n19927_n2306# sky130_fd_pr__res_xhigh_po_1p41 l=17.6
X19 a_n10347_1744# a_n10347_n2176# a_n19927_n2306# sky130_fd_pr__res_xhigh_po_1p41 l=17.6
X20 a_n13371_1744# a_n13371_n2176# a_n19927_n2306# sky130_fd_pr__res_xhigh_po_1p41 l=17.6
X21 a_n6567_1744# a_n6567_n2176# a_n19927_n2306# sky130_fd_pr__res_xhigh_po_1p41 l=17.6
X22 a_n9591_1744# a_n9591_n2176# a_n19927_n2306# sky130_fd_pr__res_xhigh_po_1p41 l=17.6
X23 a_n12615_1744# a_n12615_n2176# a_n19927_n2306# sky130_fd_pr__res_xhigh_po_1p41 l=17.6
X24 a_14223_1744# a_14223_n2176# a_n19927_n2306# sky130_fd_pr__res_xhigh_po_1p41 l=17.6
X25 a_n8835_1744# a_n8835_n2176# a_n19927_n2306# sky130_fd_pr__res_xhigh_po_1p41 l=17.6
X26 a_n3165_1744# a_n3165_n2176# a_n19927_n2306# sky130_fd_pr__res_xhigh_po_1p41 l=17.6
X27 a_n5433_1744# a_n5433_n2176# a_n19927_n2306# sky130_fd_pr__res_xhigh_po_1p41 l=17.6
X28 a_n897_1744# a_n897_n2176# a_n19927_n2306# sky130_fd_pr__res_xhigh_po_1p41 l=17.6
X29 a_n2409_1744# a_n2409_n2176# a_n19927_n2306# sky130_fd_pr__res_xhigh_po_1p41 l=17.6
X30 a_n7701_1744# a_n7701_n2176# a_n19927_n2306# sky130_fd_pr__res_xhigh_po_1p41 l=17.6
X31 a_2883_1744# a_2883_n2176# a_n19927_n2306# sky130_fd_pr__res_xhigh_po_1p41 l=17.6
X32 a_n2031_1744# a_n2031_n2176# a_n19927_n2306# sky130_fd_pr__res_xhigh_po_1p41 l=17.6
X33 a_11955_1744# a_11955_n2176# a_n19927_n2306# sky130_fd_pr__res_xhigh_po_1p41 l=17.6
X34 a_10821_1744# a_10821_n2176# a_n19927_n2306# sky130_fd_pr__res_xhigh_po_1p41 l=17.6
X35 a_n19797_1744# a_n19797_n2176# a_n19927_n2306# sky130_fd_pr__res_xhigh_po_1p41 l=17.6
X36 a_8175_1744# a_8175_n2176# a_n19927_n2306# sky130_fd_pr__res_xhigh_po_1p41 l=17.6
X37 a_7419_1744# a_7419_n2176# a_n19927_n2306# sky130_fd_pr__res_xhigh_po_1p41 l=17.6
X38 a_n16395_1744# a_n16395_n2176# a_n19927_n2306# sky130_fd_pr__res_xhigh_po_1p41 l=17.6
X39 a_n18663_1744# a_n18663_n2176# a_n19927_n2306# sky130_fd_pr__res_xhigh_po_1p41 l=17.6
X40 a_n15639_1744# a_n15639_n2176# a_n19927_n2306# sky130_fd_pr__res_xhigh_po_1p41 l=17.6
X41 a_n17907_1744# a_n17907_n2176# a_n19927_n2306# sky130_fd_pr__res_xhigh_po_1p41 l=17.6
X42 a_17247_1744# a_17247_n2176# a_n19927_n2306# sky130_fd_pr__res_xhigh_po_1p41 l=17.6
X43 a_7041_1744# a_7041_n2176# a_n19927_n2306# sky130_fd_pr__res_xhigh_po_1p41 l=17.6
X44 a_4017_1744# a_4017_n2176# a_n19927_n2306# sky130_fd_pr__res_xhigh_po_1p41 l=17.6
X45 a_19515_1744# a_19515_n2176# a_n19927_n2306# sky130_fd_pr__res_xhigh_po_1p41 l=17.6
X46 a_n6189_1744# a_n6189_n2176# a_n19927_n2306# sky130_fd_pr__res_xhigh_po_1p41 l=17.6
X47 a_n12237_1744# a_n12237_n2176# a_n19927_n2306# sky130_fd_pr__res_xhigh_po_1p41 l=17.6
X48 a_n15261_1744# a_n15261_n2176# a_n19927_n2306# sky130_fd_pr__res_xhigh_po_1p41 l=17.6
X49 a_n8457_1744# a_n8457_n2176# a_n19927_n2306# sky130_fd_pr__res_xhigh_po_1p41 l=17.6
X50 a_n14505_1744# a_n14505_n2176# a_n19927_n2306# sky130_fd_pr__res_xhigh_po_1p41 l=17.6
X51 a_16113_1744# a_16113_n2176# a_n19927_n2306# sky130_fd_pr__res_xhigh_po_1p41 l=17.6
X52 a_n5055_1744# a_n5055_n2176# a_n19927_n2306# sky130_fd_pr__res_xhigh_po_1p41 l=17.6
X53 a_n11103_1744# a_n11103_n2176# a_n19927_n2306# sky130_fd_pr__res_xhigh_po_1p41 l=17.6
X54 a_n7323_1744# a_n7323_n2176# a_n19927_n2306# sky130_fd_pr__res_xhigh_po_1p41 l=17.6
X55 a_14979_1744# a_14979_n2176# a_n19927_n2306# sky130_fd_pr__res_xhigh_po_1p41 l=17.6
X56 a_4773_1744# a_4773_n2176# a_n19927_n2306# sky130_fd_pr__res_xhigh_po_1p41 l=17.6
X57 a_1749_1744# a_1749_n2176# a_n19927_n2306# sky130_fd_pr__res_xhigh_po_1p41 l=17.6
X58 a_n12993_1744# a_n12993_n2176# a_n19927_n2306# sky130_fd_pr__res_xhigh_po_1p41 l=17.6
X59 a_11577_1744# a_11577_n2176# a_n19927_n2306# sky130_fd_pr__res_xhigh_po_1p41 l=17.6
X60 a_1371_1744# a_1371_n2176# a_n19927_n2306# sky130_fd_pr__res_xhigh_po_1p41 l=17.6
X61 a_13845_1744# a_13845_n2176# a_n19927_n2306# sky130_fd_pr__res_xhigh_po_1p41 l=17.6
X62 a_n2787_1744# a_n2787_n2176# a_n19927_n2306# sky130_fd_pr__res_xhigh_po_1p41 l=17.6
X63 a_10443_1744# a_10443_n2176# a_n19927_n2306# sky130_fd_pr__res_xhigh_po_1p41 l=17.6
X64 a_12711_1744# a_12711_n2176# a_n19927_n2306# sky130_fd_pr__res_xhigh_po_1p41 l=17.6
X65 a_n1653_1744# a_n1653_n2176# a_n19927_n2306# sky130_fd_pr__res_xhigh_po_1p41 l=17.6
X66 a_615_1744# a_615_n2176# a_n19927_n2306# sky130_fd_pr__res_xhigh_po_1p41 l=17.6
X67 a_n3921_1744# a_n3921_n2176# a_n19927_n2306# sky130_fd_pr__res_xhigh_po_1p41 l=17.6
X68 a_9309_1744# a_9309_n2176# a_n19927_n2306# sky130_fd_pr__res_xhigh_po_1p41 l=17.6
X69 a_n18285_1744# a_n18285_n2176# a_n19927_n2306# sky130_fd_pr__res_xhigh_po_1p41 l=17.6
X70 a_n17529_1744# a_n17529_n2176# a_n19927_n2306# sky130_fd_pr__res_xhigh_po_1p41 l=17.6
X71 a_19137_1744# a_19137_n2176# a_n19927_n2306# sky130_fd_pr__res_xhigh_po_1p41 l=17.6
X72 a_n17151_1744# a_n17151_n2176# a_n19927_n2306# sky130_fd_pr__res_xhigh_po_1p41 l=17.6
X73 a_n8079_1744# a_n8079_n2176# a_n19927_n2306# sky130_fd_pr__res_xhigh_po_1p41 l=17.6
X74 a_n14127_1744# a_n14127_n2176# a_n19927_n2306# sky130_fd_pr__res_xhigh_po_1p41 l=17.6
X75 a_18003_1744# a_18003_n2176# a_n19927_n2306# sky130_fd_pr__res_xhigh_po_1p41 l=17.6
X76 a_7797_1744# a_7797_n2176# a_n19927_n2306# sky130_fd_pr__res_xhigh_po_1p41 l=17.6
X77 a_n9213_1744# a_n9213_n2176# a_n19927_n2306# sky130_fd_pr__res_xhigh_po_1p41 l=17.6
X78 a_4395_1744# a_4395_n2176# a_n19927_n2306# sky130_fd_pr__res_xhigh_po_1p41 l=17.6
X79 a_16869_1744# a_16869_n2176# a_n19927_n2306# sky130_fd_pr__res_xhigh_po_1p41 l=17.6
X80 a_6663_1744# a_6663_n2176# a_n19927_n2306# sky130_fd_pr__res_xhigh_po_1p41 l=17.6
X81 a_3639_1744# a_3639_n2176# a_n19927_n2306# sky130_fd_pr__res_xhigh_po_1p41 l=17.6
X82 a_11199_1744# a_11199_n2176# a_n19927_n2306# sky130_fd_pr__res_xhigh_po_1p41 l=17.6
X83 a_8931_1744# a_8931_n2176# a_n19927_n2306# sky130_fd_pr__res_xhigh_po_1p41 l=17.6